
  -OEChem-01062216093D

 23 22  0     1  0  0  0  0  0999 V2000
   -2.6845   -3.6923    0.9794 H   0  0  0  0  0  0  0  0  0  0  0  0
   -2.6617   -2.6448    0.6663 C   0  0  0  0  0  0  0  0  0  0  0  0
   -3.4009   -2.0867    1.2460 H   0  0  0  0  0  0  0  0  0  0  0  0
   -2.9215   -2.5885   -0.3937 H   0  0  0  0  0  0  0  0  0  0  0  0
   -1.2798   -2.0608    0.8918 C   0  0  0  0  0  0  0  0  0  0  0  0
   -0.4156   -2.7306    1.4360 O   0  0  0  0  0  0  0  0  0  0  0  0
   -1.0217   -0.7578    0.5264 N   0  0  0  0  0  0  0  0  0  0  0  0
   -1.7709   -0.2463    0.0613 H   0  0  0  0  0  0  0  0  0  0  0  0
    0.3044   -0.1128    0.5075 C   0  0  1  0  0  0  0  0  0  0  0  0
    0.7060   -0.1162    1.5249 H   0  0  0  0  0  0  0  0  0  0  0  0
    1.2888   -0.8608   -0.4154 C   0  0  0  0  0  0  0  0  0  0  0  0
    2.2887   -0.4276   -0.3126 H   0  0  0  0  0  0  0  0  0  0  0  0
    1.3662   -1.9113   -0.1223 H   0  0  0  0  0  0  0  0  0  0  0  0
    0.8785   -0.7773   -1.7855 O   0  0  0  0  0  0  0  0  0  0  0  0
    1.4267   -1.3535   -2.3461 H   0  0  0  0  0  0  0  0  0  0  0  0
    0.1961    1.3573    0.0446 C   0  0  0  0  0  0  0  0  0  0  0  0
   -0.9056    1.8595   -0.1618 O   0  0  0  0  0  0  0  0  0  0  0  0
    1.3201    2.1610   -0.0497 N   0  0  0  0  0  0  0  0  0  0  0  0
    2.2244    1.7138    0.0614 H   0  0  0  0  0  0  0  0  0  0  0  0
    1.2729    3.5465   -0.5014 C   0  0  0  0  0  0  0  0  0  0  0  0
    0.6120    4.1380    0.1411 H   0  0  0  0  0  0  0  0  0  0  0  0
    2.2725    3.9904   -0.4668 H   0  0  0  0  0  0  0  0  0  0  0  0
    0.9048    3.6006   -1.5314 H   0  0  0  0  0  0  0  0  0  0  0  0
  1  2  1  0  0  0  0
  2  3  1  0  0  0  0
  2  4  1  0  0  0  0
  2  5  1  0  0  0  0
  5  6  2  0  0  0  0
  5  7  1  0  0  0  0
  7  8  1  0  0  0  0
  7  9  1  0  0  0  0
  9 10  1  0  0  0  0
  9 11  1  0  0  0  0
  9 16  1  0  0  0  0
 11 12  1  0  0  0  0
 11 13  1  0  0  0  0
 11 14  1  0  0  0  0
 14 15  1  0  0  0  0
 16 17  2  0  0  0  0
 16 18  1  0  0  0  0
 18 19  1  0  0  0  0
 18 20  1  0  0  0  0
 20 21  1  0  0  0  0
 20 22  1  0  0  0  0
 20 23  1  0  0  0  0
M  END
$$$$

  -OEChem-01062216093D

 23 22  0     1  0  0  0  0  0999 V2000
   -2.7198   -3.6622    0.9671 H   0  0  0  0  0  0  0  0  0  0  0  0
   -2.6789   -2.6107    0.6690 C   0  0  0  0  0  0  0  0  0  0  0  0
   -3.3870   -2.0431    1.2777 H   0  0  0  0  0  0  0  0  0  0  0  0
   -2.9665   -2.5313   -0.3822 H   0  0  0  0  0  0  0  0  0  0  0  0
   -1.2767   -2.0654    0.8640 C   0  0  0  0  0  0  0  0  0  0  0  0
   -0.4159   -2.7675    1.3713 O   0  0  0  0  0  0  0  0  0  0  0  0
   -0.9986   -0.7624    0.5123 N   0  0  0  0  0  0  0  0  0  0  0  0
   -1.7607   -0.2113    0.1195 H   0  0  0  0  0  0  0  0  0  0  0  0
    0.3319   -0.1244    0.5067 C   0  0  1  0  0  0  0  0  0  0  0  0
    0.7267   -0.1305    1.5267 H   0  0  0  0  0  0  0  0  0  0  0  0
    1.3219   -0.8787   -0.4066 C   0  0  0  0  0  0  0  0  0  0  0  0
    2.3250   -0.4565   -0.2915 H   0  0  0  0  0  0  0  0  0  0  0  0
    1.3883   -1.9297   -0.1134 H   0  0  0  0  0  0  0  0  0  0  0  0
    0.9266   -0.7932   -1.7810 O   0  0  0  0  0  0  0  0  0  0  0  0
    1.4432   -1.4115   -2.3271 H   0  0  0  0  0  0  0  0  0  0  0  0
    0.2222    1.3504    0.0527 C   0  0  0  0  0  0  0  0  0  0  0  0
   -0.8691    1.9130    0.0746 O   0  0  0  0  0  0  0  0  0  0  0  0
    1.3347    2.0813   -0.3306 N   0  0  0  0  0  0  0  0  0  0  0  0
    2.1920    1.5600   -0.4845 H   0  0  0  0  0  0  0  0  0  0  0  0
    1.2507    3.4466   -0.8352 C   0  0  0  0  0  0  0  0  0  0  0  0
    0.7740    4.1004   -0.0970 H   0  0  0  0  0  0  0  0  0  0  0  0
    2.2523    3.8357   -1.0417 H   0  0  0  0  0  0  0  0  0  0  0  0
    0.6679    3.4766   -1.7619 H   0  0  0  0  0  0  0  0  0  0  0  0
  1  2  1  0  0  0  0
  2  3  1  0  0  0  0
  2  4  1  0  0  0  0
  2  5  1  0  0  0  0
  5  6  2  0  0  0  0
  5  7  1  0  0  0  0
  7  8  1  0  0  0  0
  7  9  1  0  0  0  0
  9 10  1  0  0  0  0
  9 11  1  0  0  0  0
  9 16  1  0  0  0  0
 11 12  1  0  0  0  0
 11 13  1  0  0  0  0
 11 14  1  0  0  0  0
 14 15  1  0  0  0  0
 16 17  2  0  0  0  0
 16 18  1  0  0  0  0
 18 19  1  0  0  0  0
 18 20  1  0  0  0  0
 20 21  1  0  0  0  0
 20 22  1  0  0  0  0
 20 23  1  0  0  0  0
M  END
$$$$

  -OEChem-01062216093D

 23 22  0     1  0  0  0  0  0999 V2000
   -2.7559   -3.6253    0.9633 H   0  0  0  0  0  0  0  0  0  0  0  0
   -2.6982   -2.5716    0.6766 C   0  0  0  0  0  0  0  0  0  0  0  0
   -3.3698   -1.9945    1.3166 H   0  0  0  0  0  0  0  0  0  0  0  0
   -3.0203   -2.4717   -0.3626 H   0  0  0  0  0  0  0  0  0  0  0  0
   -1.2761   -2.0655    0.8285 C   0  0  0  0  0  0  0  0  0  0  0  0
   -0.4186   -2.7981    1.2956 O   0  0  0  0  0  0  0  0  0  0  0  0
   -0.9792   -0.7635    0.4871 N   0  0  0  0  0  0  0  0  0  0  0  0
   -1.7504   -0.1778    0.1706 H   0  0  0  0  0  0  0  0  0  0  0  0
    0.3573   -0.1364    0.4936 C   0  0  1  0  0  0  0  0  0  0  0  0
    0.7390   -0.1410    1.5188 H   0  0  0  0  0  0  0  0  0  0  0  0
    1.3658   -0.8961   -0.3965 C   0  0  0  0  0  0  0  0  0  0  0  0
    2.3666   -0.4744   -0.2599 H   0  0  0  0  0  0  0  0  0  0  0  0
    1.4259   -1.9447   -0.0954 H   0  0  0  0  0  0  0  0  0  0  0  0
    1.0033   -0.8220   -1.7810 O   0  0  0  0  0  0  0  0  0  0  0  0
    1.4875   -1.4908   -2.2972 H   0  0  0  0  0  0  0  0  0  0  0  0
    0.2469    1.3405    0.0457 C   0  0  0  0  0  0  0  0  0  0  0  0
   -0.7819    1.9639    0.2903 O   0  0  0  0  0  0  0  0  0  0  0  0
    1.2745    1.9933   -0.6140 N   0  0  0  0  0  0  0  0  0  0  0  0
    1.9903    1.3912   -1.0112 H   0  0  0  0  0  0  0  0  0  0  0  0
    1.1353    3.3410   -1.1520 C   0  0  0  0  0  0  0  0  0  0  0  0
    0.8577    4.0452   -0.3605 H   0  0  0  0  0  0  0  0  0  0  0  0
    2.0824    3.6725   -1.5883 H   0  0  0  0  0  0  0  0  0  0  0  0
    0.3657    3.3642   -1.9306 H   0  0  0  0  0  0  0  0  0  0  0  0
  1  2  1  0  0  0  0
  2  3  1  0  0  0  0
  2  4  1  0  0  0  0
  2  5  1  0  0  0  0
  5  6  2  0  0  0  0
  5  7  1  0  0  0  0
  7  8  1  0  0  0  0
  7  9  1  0  0  0  0
  9 10  1  0  0  0  0
  9 11  1  0  0  0  0
  9 16  1  0  0  0  0
 11 12  1  0  0  0  0
 11 13  1  0  0  0  0
 11 14  1  0  0  0  0
 14 15  1  0  0  0  0
 16 17  2  0  0  0  0
 16 18  1  0  0  0  0
 18 19  1  0  0  0  0
 18 20  1  0  0  0  0
 20 21  1  0  0  0  0
 20 22  1  0  0  0  0
 20 23  1  0  0  0  0
M  END
$$$$

  -OEChem-01062216093D

 23 22  0     1  0  0  0  0  0999 V2000
   -2.7751   -3.5998    0.9792 H   0  0  0  0  0  0  0  0  0  0  0  0
   -2.7093   -2.5469    0.6904 C   0  0  0  0  0  0  0  0  0  0  0  0
   -3.3543   -1.9598    1.3487 H   0  0  0  0  0  0  0  0  0  0  0  0
   -3.0584   -2.4420   -0.3397 H   0  0  0  0  0  0  0  0  0  0  0  0
   -1.2760   -2.0627    0.8031 C   0  0  0  0  0  0  0  0  0  0  0  0
   -0.4192   -2.8109    1.2453 O   0  0  0  0  0  0  0  0  0  0  0  0
   -0.9713   -0.7620    0.4622 N   0  0  0  0  0  0  0  0  0  0  0  0
   -1.7483   -0.1616    0.1929 H   0  0  0  0  0  0  0  0  0  0  0  0
    0.3686   -0.1413    0.4708 C   0  0  1  0  0  0  0  0  0  0  0  0
    0.7385   -0.1390    1.5004 H   0  0  0  0  0  0  0  0  0  0  0  0
    1.3939   -0.9116   -0.3941 C   0  0  0  0  0  0  0  0  0  0  0  0
    2.3890   -0.4789   -0.2473 H   0  0  0  0  0  0  0  0  0  0  0  0
    1.4576   -1.9542   -0.0736 H   0  0  0  0  0  0  0  0  0  0  0  0
    1.0618   -0.8659   -1.7887 O   0  0  0  0  0  0  0  0  0  0  0  0
    1.5379   -1.5644   -2.2735 H   0  0  0  0  0  0  0  0  0  0  0  0
    0.2625    1.3351    0.0224 C   0  0  0  0  0  0  0  0  0  0  0  0
   -0.6532    2.0216    0.4634 O   0  0  0  0  0  0  0  0  0  0  0  0
    1.1380    1.9028   -0.8864 N   0  0  0  0  0  0  0  0  0  0  0  0
    1.6742    1.2310   -1.4330 H   0  0  0  0  0  0  0  0  0  0  0  0
    0.9505    3.2404   -1.4345 C   0  0  0  0  0  0  0  0  0  0  0  0
    0.8823    3.9804   -0.6300 H   0  0  0  0  0  0  0  0  0  0  0  0
    1.7975    3.5072   -2.0737 H   0  0  0  0  0  0  0  0  0  0  0  0
    0.0341    3.2841   -2.0321 H   0  0  0  0  0  0  0  0  0  0  0  0
  1  2  1  0  0  0  0
  2  3  1  0  0  0  0
  2  4  1  0  0  0  0
  2  5  1  0  0  0  0
  5  6  2  0  0  0  0
  5  7  1  0  0  0  0
  7  8  1  0  0  0  0
  7  9  1  0  0  0  0
  9 10  1  0  0  0  0
  9 11  1  0  0  0  0
  9 16  1  0  0  0  0
 11 12  1  0  0  0  0
 11 13  1  0  0  0  0
 11 14  1  0  0  0  0
 14 15  1  0  0  0  0
 16 17  2  0  0  0  0
 16 18  1  0  0  0  0
 18 19  1  0  0  0  0
 18 20  1  0  0  0  0
 20 21  1  0  0  0  0
 20 22  1  0  0  0  0
 20 23  1  0  0  0  0
M  END
$$$$

  -OEChem-01062216093D

 23 22  0     1  0  0  0  0  0999 V2000
   -2.7754   -3.5915    0.9859 H   0  0  0  0  0  0  0  0  0  0  0  0
   -2.7081   -2.5387    0.6979 C   0  0  0  0  0  0  0  0  0  0  0  0
   -3.3495   -1.9512    1.3594 H   0  0  0  0  0  0  0  0  0  0  0  0
   -3.0612   -2.4325   -0.3305 H   0  0  0  0  0  0  0  0  0  0  0  0
   -1.2733   -2.0572    0.8055 C   0  0  0  0  0  0  0  0  0  0  0  0
   -0.4181   -2.8063    1.2487 O   0  0  0  0  0  0  0  0  0  0  0  0
   -0.9684   -0.7581    0.4565 N   0  0  0  0  0  0  0  0  0  0  0  0
   -1.7483   -0.1635    0.1859 H   0  0  0  0  0  0  0  0  0  0  0  0
    0.3722   -0.1375    0.4522 C   0  0  1  0  0  0  0  0  0  0  0  0
    0.7434   -0.1271    1.4816 H   0  0  0  0  0  0  0  0  0  0  0  0
    1.3969   -0.9259   -0.3995 C   0  0  0  0  0  0  0  0  0  0  0  0
    2.3887   -0.4826   -0.2627 H   0  0  0  0  0  0  0  0  0  0  0  0
    1.4674   -1.9599   -0.0541 H   0  0  0  0  0  0  0  0  0  0  0  0
    1.0739   -0.9164   -1.7987 O   0  0  0  0  0  0  0  0  0  0  0  0
    1.5626   -1.6223   -2.2602 H   0  0  0  0  0  0  0  0  0  0  0  0
    0.2737    1.3374   -0.0010 C   0  0  0  0  0  0  0  0  0  0  0  0
   -0.4879    2.0864    0.5994 O   0  0  0  0  0  0  0  0  0  0  0  0
    0.9316    1.8218   -1.1165 N   0  0  0  0  0  0  0  0  0  0  0  0
    1.3200    1.1008   -1.7253 H   0  0  0  0  0  0  0  0  0  0  0  0
    0.7000    3.1502   -1.6698 C   0  0  0  0  0  0  0  0  0  0  0  0
    0.8517    3.9184   -0.9042 H   0  0  0  0  0  0  0  0  0  0  0  0
    1.3977    3.3428   -2.4903 H   0  0  0  0  0  0  0  0  0  0  0  0
   -0.3220    3.2322   -2.0539 H   0  0  0  0  0  0  0  0  0  0  0  0
  1  2  1  0  0  0  0
  2  3  1  0  0  0  0
  2  4  1  0  0  0  0
  2  5  1  0  0  0  0
  5  6  2  0  0  0  0
  5  7  1  0  0  0  0
  7  8  1  0  0  0  0
  7  9  1  0  0  0  0
  9 10  1  0  0  0  0
  9 11  1  0  0  0  0
  9 16  1  0  0  0  0
 11 12  1  0  0  0  0
 11 13  1  0  0  0  0
 11 14  1  0  0  0  0
 14 15  1  0  0  0  0
 16 17  2  0  0  0  0
 16 18  1  0  0  0  0
 18 19  1  0  0  0  0
 18 20  1  0  0  0  0
 20 21  1  0  0  0  0
 20 22  1  0  0  0  0
 20 23  1  0  0  0  0
M  END
$$$$

  -OEChem-01062216093D

 23 22  0     1  0  0  0  0  0999 V2000
   -2.7526   -3.6050    0.9999 H   0  0  0  0  0  0  0  0  0  0  0  0
   -2.6979   -2.5526    0.7077 C   0  0  0  0  0  0  0  0  0  0  0  0
   -3.3535   -1.9711    1.3605 H   0  0  0  0  0  0  0  0  0  0  0  0
   -3.0426   -2.4561   -0.3246 H   0  0  0  0  0  0  0  0  0  0  0  0
   -1.2712   -2.0505    0.8270 C   0  0  0  0  0  0  0  0  0  0  0  0
   -0.4127   -2.7810    1.2936 O   0  0  0  0  0  0  0  0  0  0  0  0
   -0.9784   -0.7534    0.4592 N   0  0  0  0  0  0  0  0  0  0  0  0
   -1.7600   -0.1834    0.1463 H   0  0  0  0  0  0  0  0  0  0  0  0
    0.3602   -0.1280    0.4345 C   0  0  1  0  0  0  0  0  0  0  0  0
    0.7374   -0.1052    1.4618 H   0  0  0  0  0  0  0  0  0  0  0  0
    1.3804   -0.9334   -0.4084 C   0  0  0  0  0  0  0  0  0  0  0  0
    2.3699   -0.4797   -0.2885 H   0  0  0  0  0  0  0  0  0  0  0  0
    1.4602   -1.9581   -0.0382 H   0  0  0  0  0  0  0  0  0  0  0  0
    1.0546   -0.9607   -1.8077 O   0  0  0  0  0  0  0  0  0  0  0  0
    1.5772   -1.6493   -2.2583 H   0  0  0  0  0  0  0  0  0  0  0  0
    0.2671    1.3419   -0.0327 C   0  0  0  0  0  0  0  0  0  0  0  0
   -0.2863    2.1563    0.6950 O   0  0  0  0  0  0  0  0  0  0  0  0
    0.6560    1.7483   -1.2948 N   0  0  0  0  0  0  0  0  0  0  0  0
    0.9284    0.9949   -1.9281 H   0  0  0  0  0  0  0  0  0  0  0  0
    0.4076    3.0785   -1.8351 C   0  0  0  0  0  0  0  0  0  0  0  0
    0.8085    3.8468   -1.1656 H   0  0  0  0  0  0  0  0  0  0  0  0
    0.8937    3.1858   -2.8095 H   0  0  0  0  0  0  0  0  0  0  0  0
   -0.6669    3.2463   -1.9607 H   0  0  0  0  0  0  0  0  0  0  0  0
  1  2  1  0  0  0  0
  2  3  1  0  0  0  0
  2  4  1  0  0  0  0
  2  5  1  0  0  0  0
  5  6  2  0  0  0  0
  5  7  1  0  0  0  0
  7  8  1  0  0  0  0
  7  9  1  0  0  0  0
  9 10  1  0  0  0  0
  9 11  1  0  0  0  0
  9 16  1  0  0  0  0
 11 12  1  0  0  0  0
 11 13  1  0  0  0  0
 11 14  1  0  0  0  0
 14 15  1  0  0  0  0
 16 17  2  0  0  0  0
 16 18  1  0  0  0  0
 18 19  1  0  0  0  0
 18 20  1  0  0  0  0
 20 21  1  0  0  0  0
 20 22  1  0  0  0  0
 20 23  1  0  0  0  0
M  END
$$$$

  -OEChem-01062216093D

 23 22  0     1  0  0  0  0  0999 V2000
   -2.7112   -3.6420    1.0714 H   0  0  0  0  0  0  0  0  0  0  0  0
   -2.6762   -2.6065    0.7214 C   0  0  0  0  0  0  0  0  0  0  0  0
   -3.3716   -2.0099    1.3167 H   0  0  0  0  0  0  0  0  0  0  0  0
   -2.9856   -2.5786   -0.3261 H   0  0  0  0  0  0  0  0  0  0  0  0
   -1.2700   -2.0551    0.8613 C   0  0  0  0  0  0  0  0  0  0  0  0
   -0.3986   -2.7462    1.3626 O   0  0  0  0  0  0  0  0  0  0  0  0
   -1.0098   -0.7580    0.4695 N   0  0  0  0  0  0  0  0  0  0  0  0
   -1.7940   -0.2357    0.0888 H   0  0  0  0  0  0  0  0  0  0  0  0
    0.3190   -0.1127    0.4236 C   0  0  1  0  0  0  0  0  0  0  0  0
    0.7048   -0.0737    1.4476 H   0  0  0  0  0  0  0  0  0  0  0  0
    1.3416   -0.9146   -0.4186 C   0  0  0  0  0  0  0  0  0  0  0  0
    2.3238   -0.4423   -0.3145 H   0  0  0  0  0  0  0  0  0  0  0  0
    1.4413   -1.9323   -0.0337 H   0  0  0  0  0  0  0  0  0  0  0  0
    1.0057   -0.9684   -1.8152 O   0  0  0  0  0  0  0  0  0  0  0  0
    1.5739   -1.6179   -2.2687 H   0  0  0  0  0  0  0  0  0  0  0  0
    0.2119    1.3484   -0.0635 C   0  0  0  0  0  0  0  0  0  0  0  0
   -0.0780    2.2250    0.7397 O   0  0  0  0  0  0  0  0  0  0  0  0
    0.2966    1.6851   -1.4002 N   0  0  0  0  0  0  0  0  0  0  0  0
    0.5033    0.9158   -2.0396 H   0  0  0  0  0  0  0  0  0  0  0  0
    0.1202    3.0337   -1.9218 C   0  0  0  0  0  0  0  0  0  0  0  0
    0.8642    3.7112   -1.4902 H   0  0  0  0  0  0  0  0  0  0  0  0
    0.2395    3.0360   -3.0094 H   0  0  0  0  0  0  0  0  0  0  0  0
   -0.8802    3.4090   -1.6825 H   0  0  0  0  0  0  0  0  0  0  0  0
  1  2  1  0  0  0  0
  2  3  1  0  0  0  0
  2  4  1  0  0  0  0
  2  5  1  0  0  0  0
  5  6  2  0  0  0  0
  5  7  1  0  0  0  0
  7  8  1  0  0  0  0
  7  9  1  0  0  0  0
  9 10  1  0  0  0  0
  9 11  1  0  0  0  0
  9 16  1  0  0  0  0
 11 12  1  0  0  0  0
 11 13  1  0  0  0  0
 11 14  1  0  0  0  0
 14 15  1  0  0  0  0
 16 17  2  0  0  0  0
 16 18  1  0  0  0  0
 18 19  1  0  0  0  0
 18 20  1  0  0  0  0
 20 21  1  0  0  0  0
 20 22  1  0  0  0  0
 20 23  1  0  0  0  0
M  END
$$$$

  -OEChem-01062216093D

 23 22  0     1  0  0  0  0  0999 V2000
   -2.6493   -3.7051    1.0940 H   0  0  0  0  0  0  0  0  0  0  0  0
   -2.6482   -2.6708    0.7385 C   0  0  0  0  0  0  0  0  0  0  0  0
   -3.3770   -2.0986    1.3176 H   0  0  0  0  0  0  0  0  0  0  0  0
   -2.9389   -2.6609   -0.3147 H   0  0  0  0  0  0  0  0  0  0  0  0
   -1.2675   -2.0639    0.9009 C   0  0  0  0  0  0  0  0  0  0  0  0
   -0.3800   -2.7148    1.4273 O   0  0  0  0  0  0  0  0  0  0  0  0
   -1.0461   -0.7642    0.4938 N   0  0  0  0  0  0  0  0  0  0  0  0
   -1.8313   -0.2908    0.0561 H   0  0  0  0  0  0  0  0  0  0  0  0
    0.2701   -0.0945    0.4317 C   0  0  1  0  0  0  0  0  0  0  0  0
    0.6700   -0.0489    1.4502 H   0  0  0  0  0  0  0  0  0  0  0  0
    1.2889   -0.8748   -0.4321 C   0  0  0  0  0  0  0  0  0  0  0  0
    2.2655   -0.3874   -0.3436 H   0  0  0  0  0  0  0  0  0  0  0  0
    1.4102   -1.8940   -0.0565 H   0  0  0  0  0  0  0  0  0  0  0  0
    0.9237   -0.9218   -1.8218 O   0  0  0  0  0  0  0  0  0  0  0  0
    1.5240   -1.5210   -2.3025 H   0  0  0  0  0  0  0  0  0  0  0  0
    0.1419    1.3594   -0.0660 C   0  0  0  0  0  0  0  0  0  0  0  0
    0.1472    2.2792    0.7407 O   0  0  0  0  0  0  0  0  0  0  0  0
   -0.0902    1.6424   -1.3980 N   0  0  0  0  0  0  0  0  0  0  0  0
    0.0470    0.8563   -2.0355 H   0  0  0  0  0  0  0  0  0  0  0  0
   -0.1576    2.9942   -1.9376 C   0  0  0  0  0  0  0  0  0  0  0  0
    0.7943    3.5147   -1.7883 H   0  0  0  0  0  0  0  0  0  0  0  0
   -0.3716    2.9615   -3.0102 H   0  0  0  0  0  0  0  0  0  0  0  0
   -0.9523    3.5650   -1.4457 H   0  0  0  0  0  0  0  0  0  0  0  0
  1  2  1  0  0  0  0
  2  3  1  0  0  0  0
  2  4  1  0  0  0  0
  2  5  1  0  0  0  0
  5  6  2  0  0  0  0
  5  7  1  0  0  0  0
  7  8  1  0  0  0  0
  7  9  1  0  0  0  0
  9 10  1  0  0  0  0
  9 11  1  0  0  0  0
  9 16  1  0  0  0  0
 11 12  1  0  0  0  0
 11 13  1  0  0  0  0
 11 14  1  0  0  0  0
 14 15  1  0  0  0  0
 16 17  2  0  0  0  0
 16 18  1  0  0  0  0
 18 19  1  0  0  0  0
 18 20  1  0  0  0  0
 20 21  1  0  0  0  0
 20 22  1  0  0  0  0
 20 23  1  0  0  0  0
M  END
$$$$

  -OEChem-01062216093D

 23 22  0     1  0  0  0  0  0999 V2000
   -2.6246   -3.7351    1.0987 H   0  0  0  0  0  0  0  0  0  0  0  0
   -2.6390   -2.6985    0.7502 C   0  0  0  0  0  0  0  0  0  0  0  0
   -3.3772   -2.1419    1.3328 H   0  0  0  0  0  0  0  0  0  0  0  0
   -2.9289   -2.6858   -0.3032 H   0  0  0  0  0  0  0  0  0  0  0  0
   -1.2678   -2.0715    0.9178 C   0  0  0  0  0  0  0  0  0  0  0  0
   -0.3724   -2.7086    1.4474 O   0  0  0  0  0  0  0  0  0  0  0  0
   -1.0612   -0.7701    0.5085 N   0  0  0  0  0  0  0  0  0  0  0  0
   -1.8475   -0.3084    0.0606 H   0  0  0  0  0  0  0  0  0  0  0  0
    0.2496   -0.0891    0.4518 C   0  0  1  0  0  0  0  0  0  0  0  0
    0.6588   -0.0509    1.4668 H   0  0  0  0  0  0  0  0  0  0  0  0
    1.2582   -0.8455   -0.4398 C   0  0  0  0  0  0  0  0  0  0  0  0
    2.2352   -0.3581   -0.3550 H   0  0  0  0  0  0  0  0  0  0  0  0
    1.3854   -1.8741   -0.0925 H   0  0  0  0  0  0  0  0  0  0  0  0
    0.8635   -0.8531   -1.8219 O   0  0  0  0  0  0  0  0  0  0  0  0
    1.4799   -1.4029   -2.3395 H   0  0  0  0  0  0  0  0  0  0  0  0
    0.1173    1.3613   -0.0482 C   0  0  0  0  0  0  0  0  0  0  0  0
    0.3877    2.2940    0.6960 O   0  0  0  0  0  0  0  0  0  0  0  0
   -0.4065    1.6232   -1.3003 N   0  0  0  0  0  0  0  0  0  0  0  0
   -0.3813    0.8255   -1.9366 H   0  0  0  0  0  0  0  0  0  0  0  0
   -0.4643    2.9644   -1.8673 C   0  0  0  0  0  0  0  0  0  0  0  0
    0.5434    3.3806   -1.9695 H   0  0  0  0  0  0  0  0  0  0  0  0
   -0.9314    2.9356   -2.8564 H   0  0  0  0  0  0  0  0  0  0  0  0
   -1.0561    3.6275   -1.2273 H   0  0  0  0  0  0  0  0  0  0  0  0
  1  2  1  0  0  0  0
  2  3  1  0  0  0  0
  2  4  1  0  0  0  0
  2  5  1  0  0  0  0
  5  6  2  0  0  0  0
  5  7  1  0  0  0  0
  7  8  1  0  0  0  0
  7  9  1  0  0  0  0
  9 10  1  0  0  0  0
  9 11  1  0  0  0  0
  9 16  1  0  0  0  0
 11 12  1  0  0  0  0
 11 13  1  0  0  0  0
 11 14  1  0  0  0  0
 14 15  1  0  0  0  0
 16 17  2  0  0  0  0
 16 18  1  0  0  0  0
 18 19  1  0  0  0  0
 18 20  1  0  0  0  0
 20 21  1  0  0  0  0
 20 22  1  0  0  0  0
 20 23  1  0  0  0  0
M  END
$$$$

  -OEChem-01062216093D

 23 22  0     1  0  0  0  0  0999 V2000
   -2.6152   -3.7545    1.1201 H   0  0  0  0  0  0  0  0  0  0  0  0
   -2.6369   -2.7207    0.7640 C   0  0  0  0  0  0  0  0  0  0  0  0
   -3.3775   -2.1645    1.3436 H   0  0  0  0  0  0  0  0  0  0  0  0
   -2.9291   -2.7181   -0.2887 H   0  0  0  0  0  0  0  0  0  0  0  0
   -1.2688   -2.0850    0.9248 C   0  0  0  0  0  0  0  0  0  0  0  0
   -0.3676   -2.7153    1.4524 O   0  0  0  0  0  0  0  0  0  0  0  0
   -1.0703   -0.7829    0.5134 N   0  0  0  0  0  0  0  0  0  0  0  0
   -1.8629   -0.3180    0.0806 H   0  0  0  0  0  0  0  0  0  0  0  0
    0.2359   -0.0899    0.4726 C   0  0  1  0  0  0  0  0  0  0  0  0
    0.6463   -0.0589    1.4873 H   0  0  0  0  0  0  0  0  0  0  0  0
    1.2367   -0.8251   -0.4409 C   0  0  0  0  0  0  0  0  0  0  0  0
    2.2149   -0.3398   -0.3559 H   0  0  0  0  0  0  0  0  0  0  0  0
    1.3662   -1.8626   -0.1213 H   0  0  0  0  0  0  0  0  0  0  0  0
    0.8172   -0.7915   -1.8154 O   0  0  0  0  0  0  0  0  0  0  0  0
    1.4448   -1.2929   -2.3671 H   0  0  0  0  0  0  0  0  0  0  0  0
    0.1128    1.3582   -0.0325 C   0  0  0  0  0  0  0  0  0  0  0  0
    0.6131    2.2760    0.6035 O   0  0  0  0  0  0  0  0  0  0  0  0
   -0.6612    1.6372   -1.1446 N   0  0  0  0  0  0  0  0  0  0  0  0
   -0.7811    0.8415   -1.7698 H   0  0  0  0  0  0  0  0  0  0  0  0
   -0.7483    2.9755   -1.7157 C   0  0  0  0  0  0  0  0  0  0  0  0
    0.2339    3.3051   -2.0705 H   0  0  0  0  0  0  0  0  0  0  0  0
   -1.4441    2.9810   -2.5603 H   0  0  0  0  0  0  0  0  0  0  0  0
   -1.1106    3.6896   -0.9686 H   0  0  0  0  0  0  0  0  0  0  0  0
  1  2  1  0  0  0  0
  2  3  1  0  0  0  0
  2  4  1  0  0  0  0
  2  5  1  0  0  0  0
  5  6  2  0  0  0  0
  5  7  1  0  0  0  0
  7  8  1  0  0  0  0
  7  9  1  0  0  0  0
  9 10  1  0  0  0  0
  9 11  1  0  0  0  0
  9 16  1  0  0  0  0
 11 12  1  0  0  0  0
 11 13  1  0  0  0  0
 11 14  1  0  0  0  0
 14 15  1  0  0  0  0
 16 17  2  0  0  0  0
 16 18  1  0  0  0  0
 18 19  1  0  0  0  0
 18 20  1  0  0  0  0
 20 21  1  0  0  0  0
 20 22  1  0  0  0  0
 20 23  1  0  0  0  0
M  END
$$$$

  -OEChem-01062216093D

 23 22  0     1  0  0  0  0  0999 V2000
   -2.6070   -3.7777    1.1372 H   0  0  0  0  0  0  0  0  0  0  0  0
   -2.6345   -2.7436    0.7821 C   0  0  0  0  0  0  0  0  0  0  0  0
   -3.3681   -2.1885    1.3716 H   0  0  0  0  0  0  0  0  0  0  0  0
   -2.9404   -2.7408   -0.2669 H   0  0  0  0  0  0  0  0  0  0  0  0
   -1.2652   -2.1061    0.9249 C   0  0  0  0  0  0  0  0  0  0  0  0
   -0.3573   -2.7340    1.4432 O   0  0  0  0  0  0  0  0  0  0  0  0
   -1.0753   -0.8036    0.5104 N   0  0  0  0  0  0  0  0  0  0  0  0
   -1.8838   -0.3267    0.1242 H   0  0  0  0  0  0  0  0  0  0  0  0
    0.2240   -0.0950    0.4820 C   0  0  1  0  0  0  0  0  0  0  0  0
    0.6319   -0.0653    1.4979 H   0  0  0  0  0  0  0  0  0  0  0  0
    1.2264   -0.8146   -0.4393 C   0  0  0  0  0  0  0  0  0  0  0  0
    2.2026   -0.3253   -0.3532 H   0  0  0  0  0  0  0  0  0  0  0  0
    1.3620   -1.8555   -0.1343 H   0  0  0  0  0  0  0  0  0  0  0  0
    0.7942   -0.7619   -1.8087 O   0  0  0  0  0  0  0  0  0  0  0  0
    1.4301   -1.2323   -2.3772 H   0  0  0  0  0  0  0  0  0  0  0  0
    0.1099    1.3525   -0.0290 C   0  0  0  0  0  0  0  0  0  0  0  0
    0.8067    2.2303    0.4628 O   0  0  0  0  0  0  0  0  0  0  0  0
   -0.8699    1.6911   -0.9470 N   0  0  0  0  0  0  0  0  0  0  0  0
   -1.1737    0.9168   -1.5321 H   0  0  0  0  0  0  0  0  0  0  0  0
   -0.9845    3.0384   -1.4926 C   0  0  0  0  0  0  0  0  0  0  0  0
   -0.0802    3.3048   -2.0497 H   0  0  0  0  0  0  0  0  0  0  0  0
   -1.8418    3.1000   -2.1697 H   0  0  0  0  0  0  0  0  0  0  0  0
   -1.1301    3.7679   -0.6887 H   0  0  0  0  0  0  0  0  0  0  0  0
  1  2  1  0  0  0  0
  2  3  1  0  0  0  0
  2  4  1  0  0  0  0
  2  5  1  0  0  0  0
  5  6  2  0  0  0  0
  5  7  1  0  0  0  0
  7  8  1  0  0  0  0
  7  9  1  0  0  0  0
  9 10  1  0  0  0  0
  9 11  1  0  0  0  0
  9 16  1  0  0  0  0
 11 12  1  0  0  0  0
 11 13  1  0  0  0  0
 11 14  1  0  0  0  0
 14 15  1  0  0  0  0
 16 17  2  0  0  0  0
 16 18  1  0  0  0  0
 18 19  1  0  0  0  0
 18 20  1  0  0  0  0
 20 21  1  0  0  0  0
 20 22  1  0  0  0  0
 20 23  1  0  0  0  0
M  END
$$$$

  -OEChem-01062216093D

 23 22  0     1  0  0  0  0  0999 V2000
   -2.5565   -3.8279    1.1379 H   0  0  0  0  0  0  0  0  0  0  0  0
   -2.6085   -2.7924    0.7897 C   0  0  0  0  0  0  0  0  0  0  0  0
   -3.3622   -2.2615    1.3763 H   0  0  0  0  0  0  0  0  0  0  0  0
   -2.9045   -2.7904   -0.2620 H   0  0  0  0  0  0  0  0  0  0  0  0
   -1.2577   -2.1202    0.9493 C   0  0  0  0  0  0  0  0  0  0  0  0
   -0.3471   -2.7171    1.4986 O   0  0  0  0  0  0  0  0  0  0  0  0
   -1.0906   -0.8181    0.5222 N   0  0  0  0  0  0  0  0  0  0  0  0
   -1.8993   -0.3748    0.1023 H   0  0  0  0  0  0  0  0  0  0  0  0
    0.2018   -0.0942    0.4868 C   0  0  1  0  0  0  0  0  0  0  0  0
    0.6131   -0.0594    1.5007 H   0  0  0  0  0  0  0  0  0  0  0  0
    1.1993   -0.8173   -0.4375 C   0  0  0  0  0  0  0  0  0  0  0  0
    2.1755   -0.3261   -0.3655 H   0  0  0  0  0  0  0  0  0  0  0  0
    1.3410   -1.8564   -0.1285 H   0  0  0  0  0  0  0  0  0  0  0  0
    0.7489   -0.7723   -1.8009 O   0  0  0  0  0  0  0  0  0  0  0  0
    1.3972   -1.2095   -2.3813 H   0  0  0  0  0  0  0  0  0  0  0  0
    0.1034    1.3540   -0.0327 C   0  0  0  0  0  0  0  0  0  0  0  0
    0.9675    2.1649    0.2757 O   0  0  0  0  0  0  0  0  0  0  0  0
   -1.0236    1.7955   -0.7078 N   0  0  0  0  0  0  0  0  0  0  0  0
   -1.5422    1.0715   -1.1933 H   0  0  0  0  0  0  0  0  0  0  0  0
   -1.1380    3.1597   -1.2106 C   0  0  0  0  0  0  0  0  0  0  0  0
   -0.3579    3.3621   -1.9521 H   0  0  0  0  0  0  0  0  0  0  0  0
   -2.1139    3.3077   -1.6828 H   0  0  0  0  0  0  0  0  0  0  0  0
   -1.0412    3.8806   -0.3918 H   0  0  0  0  0  0  0  0  0  0  0  0
  1  2  1  0  0  0  0
  2  3  1  0  0  0  0
  2  4  1  0  0  0  0
  2  5  1  0  0  0  0
  5  6  2  0  0  0  0
  5  7  1  0  0  0  0
  7  8  1  0  0  0  0
  7  9  1  0  0  0  0
  9 10  1  0  0  0  0
  9 11  1  0  0  0  0
  9 16  1  0  0  0  0
 11 12  1  0  0  0  0
 11 13  1  0  0  0  0
 11 14  1  0  0  0  0
 14 15  1  0  0  0  0
 16 17  2  0  0  0  0
 16 18  1  0  0  0  0
 18 19  1  0  0  0  0
 18 20  1  0  0  0  0
 20 21  1  0  0  0  0
 20 22  1  0  0  0  0
 20 23  1  0  0  0  0
M  END
$$$$

  -OEChem-01062216093D

 23 22  0     1  0  0  0  0  0999 V2000
   -2.4249   -3.8537    1.1465 H   0  0  0  0  0  0  0  0  0  0  0  0
   -2.4882   -2.8611    0.6914 C   0  0  0  0  0  0  0  0  0  0  0  0
   -3.3916   -2.3652    1.0540 H   0  0  0  0  0  0  0  0  0  0  0  0
   -2.5519   -2.9761   -0.3933 H   0  0  0  0  0  0  0  0  0  0  0  0
   -1.2651   -2.0410    1.0556 C   0  0  0  0  0  0  0  0  0  0  0  0
   -0.4163   -2.5111    1.7951 O   0  0  0  0  0  0  0  0  0  0  0  0
   -1.1404   -0.7506    0.5803 N   0  0  0  0  0  0  0  0  0  0  0  0
   -1.7816   -0.5525   -0.1810 H   0  0  0  0  0  0  0  0  0  0  0  0
    0.1736   -0.0724    0.4831 C   0  0  1  0  0  0  0  0  0  0  0  0
    0.6147   -0.0180    1.4835 H   0  0  0  0  0  0  0  0  0  0  0  0
    1.1120   -0.8845   -0.4315 C   0  0  0  0  0  0  0  0  0  0  0  0
    2.1100   -0.4334   -0.4150 H   0  0  0  0  0  0  0  0  0  0  0  0
    1.2210   -1.9127   -0.0752 H   0  0  0  0  0  0  0  0  0  0  0  0
    0.6150   -0.8839   -1.7781 O   0  0  0  0  0  0  0  0  0  0  0  0
    1.2695   -1.2840   -2.3779 H   0  0  0  0  0  0  0  0  0  0  0  0
    0.1093    1.3695   -0.0656 C   0  0  0  0  0  0  0  0  0  0  0  0
    1.1298    2.0411   -0.1547 O   0  0  0  0  0  0  0  0  0  0  0  0
   -1.0973    1.9477   -0.4259 N   0  0  0  0  0  0  0  0  0  0  0  0
   -1.9413    1.4388   -0.1905 H   0  0  0  0  0  0  0  0  0  0  0  0
   -1.2133    3.3294   -0.8773 C   0  0  0  0  0  0  0  0  0  0  0  0
   -0.5966    3.4938   -1.7673 H   0  0  0  0  0  0  0  0  0  0  0  0
   -2.2523    3.5592   -1.1320 H   0  0  0  0  0  0  0  0  0  0  0  0
   -0.8880    4.0185   -0.0908 H   0  0  0  0  0  0  0  0  0  0  0  0
  1  2  1  0  0  0  0
  2  3  1  0  0  0  0
  2  4  1  0  0  0  0
  2  5  1  0  0  0  0
  5  6  2  0  0  0  0
  5  7  1  0  0  0  0
  7  8  1  0  0  0  0
  7  9  1  0  0  0  0
  9 10  1  0  0  0  0
  9 11  1  0  0  0  0
  9 16  1  0  0  0  0
 11 12  1  0  0  0  0
 11 13  1  0  0  0  0
 11 14  1  0  0  0  0
 14 15  1  0  0  0  0
 16 17  2  0  0  0  0
 16 18  1  0  0  0  0
 18 19  1  0  0  0  0
 18 20  1  0  0  0  0
 20 21  1  0  0  0  0
 20 22  1  0  0  0  0
 20 23  1  0  0  0  0
M  END
$$$$

  -OEChem-01062216093D

 23 22  0     1  0  0  0  0  0999 V2000
   -2.4297   -3.8397    1.1241 H   0  0  0  0  0  0  0  0  0  0  0  0
   -2.4812   -2.8505    0.6604 C   0  0  0  0  0  0  0  0  0  0  0  0
   -3.3940   -2.3525    0.9956 H   0  0  0  0  0  0  0  0  0  0  0  0
   -2.5160   -2.9727   -0.4250 H   0  0  0  0  0  0  0  0  0  0  0  0
   -1.2672   -2.0283    1.0493 C   0  0  0  0  0  0  0  0  0  0  0  0
   -0.4308   -2.4953    1.8049 O   0  0  0  0  0  0  0  0  0  0  0  0
   -1.1334   -0.7385    0.5757 N   0  0  0  0  0  0  0  0  0  0  0  0
   -1.7709   -0.5329   -0.1883 H   0  0  0  0  0  0  0  0  0  0  0  0
    0.1848   -0.0697    0.4761 C   0  0  1  0  0  0  0  0  0  0  0  0
    0.6286   -0.0130    1.4750 H   0  0  0  0  0  0  0  0  0  0  0  0
    1.1143   -0.8970   -0.4355 C   0  0  0  0  0  0  0  0  0  0  0  0
    2.1168   -0.4562   -0.4240 H   0  0  0  0  0  0  0  0  0  0  0  0
    1.2151   -1.9244   -0.0736 H   0  0  0  0  0  0  0  0  0  0  0  0
    0.6137   -0.8989   -1.7808 O   0  0  0  0  0  0  0  0  0  0  0  0
    1.2752   -1.2792   -2.3854 H   0  0  0  0  0  0  0  0  0  0  0  0
    0.1057    1.3721   -0.0728 C   0  0  0  0  0  0  0  0  0  0  0  0
    1.1166    1.9881   -0.3885 O   0  0  0  0  0  0  0  0  0  0  0  0
   -1.1132    2.0279   -0.1242 N   0  0  0  0  0  0  0  0  0  0  0  0
   -1.8959    1.5661    0.3274 H   0  0  0  0  0  0  0  0  0  0  0  0
   -1.2501    3.4272   -0.5102 C   0  0  0  0  0  0  0  0  0  0  0  0
   -0.8659    3.5847   -1.5237 H   0  0  0  0  0  0  0  0  0  0  0  0
   -2.3034    3.7228   -0.4925 H   0  0  0  0  0  0  0  0  0  0  0  0
   -0.6967    4.0722    0.1804 H   0  0  0  0  0  0  0  0  0  0  0  0
  1  2  1  0  0  0  0
  2  3  1  0  0  0  0
  2  4  1  0  0  0  0
  2  5  1  0  0  0  0
  5  6  2  0  0  0  0
  5  7  1  0  0  0  0
  7  8  1  0  0  0  0
  7  9  1  0  0  0  0
  9 10  1  0  0  0  0
  9 11  1  0  0  0  0
  9 16  1  0  0  0  0
 11 12  1  0  0  0  0
 11 13  1  0  0  0  0
 11 14  1  0  0  0  0
 14 15  1  0  0  0  0
 16 17  2  0  0  0  0
 16 18  1  0  0  0  0
 18 19  1  0  0  0  0
 18 20  1  0  0  0  0
 20 21  1  0  0  0  0
 20 22  1  0  0  0  0
 20 23  1  0  0  0  0
M  END
$$$$

  -OEChem-01062216093D

 23 22  0     1  0  0  0  0  0999 V2000
   -2.4283   -3.8382    1.0909 H   0  0  0  0  0  0  0  0  0  0  0  0
   -2.4922   -2.8365    0.6563 C   0  0  0  0  0  0  0  0  0  0  0  0
   -3.3955   -2.3477    1.0291 H   0  0  0  0  0  0  0  0  0  0  0  0
   -2.5565   -2.9292   -0.4307 H   0  0  0  0  0  0  0  0  0  0  0  0
   -1.2677   -2.0252    1.0353 C   0  0  0  0  0  0  0  0  0  0  0  0
   -0.4323   -2.4981    1.7885 O   0  0  0  0  0  0  0  0  0  0  0  0
   -1.1269   -0.7351    0.5648 N   0  0  0  0  0  0  0  0  0  0  0  0
   -1.7773   -0.5099   -0.1834 H   0  0  0  0  0  0  0  0  0  0  0  0
    0.1906   -0.0663    0.4638 C   0  0  1  0  0  0  0  0  0  0  0  0
    0.6335   -0.0044    1.4627 H   0  0  0  0  0  0  0  0  0  0  0  0
    1.1236   -0.9016   -0.4388 C   0  0  0  0  0  0  0  0  0  0  0  0
    2.1249   -0.4582   -0.4278 H   0  0  0  0  0  0  0  0  0  0  0  0
    1.2259   -1.9250   -0.0671 H   0  0  0  0  0  0  0  0  0  0  0  0
    0.6291   -0.9175   -1.7862 O   0  0  0  0  0  0  0  0  0  0  0  0
    1.3049   -1.2747   -2.3887 H   0  0  0  0  0  0  0  0  0  0  0  0
    0.0932    1.3751   -0.0843 C   0  0  0  0  0  0  0  0  0  0  0  0
    1.0484    1.9410   -0.6026 O   0  0  0  0  0  0  0  0  0  0  0  0
   -1.0536    2.1115    0.1606 N   0  0  0  0  0  0  0  0  0  0  0  0
   -1.7576    1.6750    0.7483 H   0  0  0  0  0  0  0  0  0  0  0  0
   -1.1801    3.5281   -0.1606 C   0  0  0  0  0  0  0  0  0  0  0  0
   -1.0003    3.6971   -1.2276 H   0  0  0  0  0  0  0  0  0  0  0  0
   -2.1877    3.8814    0.0780 H   0  0  0  0  0  0  0  0  0  0  0  0
   -0.4593    4.1179    0.4154 H   0  0  0  0  0  0  0  0  0  0  0  0
  1  2  1  0  0  0  0
  2  3  1  0  0  0  0
  2  4  1  0  0  0  0
  2  5  1  0  0  0  0
  5  6  2  0  0  0  0
  5  7  1  0  0  0  0
  7  8  1  0  0  0  0
  7  9  1  0  0  0  0
  9 10  1  0  0  0  0
  9 11  1  0  0  0  0
  9 16  1  0  0  0  0
 11 12  1  0  0  0  0
 11 13  1  0  0  0  0
 11 14  1  0  0  0  0
 14 15  1  0  0  0  0
 16 17  2  0  0  0  0
 16 18  1  0  0  0  0
 18 19  1  0  0  0  0
 18 20  1  0  0  0  0
 20 21  1  0  0  0  0
 20 22  1  0  0  0  0
 20 23  1  0  0  0  0
M  END
$$$$

  -OEChem-01062216093D

 23 22  0     1  0  0  0  0  0999 V2000
   -2.4431   -3.8243    1.1053 H   0  0  0  0  0  0  0  0  0  0  0  0
   -2.4886   -2.8349    0.6416 C   0  0  0  0  0  0  0  0  0  0  0  0
   -3.3981   -2.3306    0.9762 H   0  0  0  0  0  0  0  0  0  0  0  0
   -2.5242   -2.9569   -0.4437 H   0  0  0  0  0  0  0  0  0  0  0  0
   -1.2690   -2.0208    1.0298 C   0  0  0  0  0  0  0  0  0  0  0  0
   -0.4365   -2.4912    1.7879 O   0  0  0  0  0  0  0  0  0  0  0  0
   -1.1297   -0.7287    0.5648 N   0  0  0  0  0  0  0  0  0  0  0  0
   -1.7892   -0.4942   -0.1728 H   0  0  0  0  0  0  0  0  0  0  0  0
    0.1859   -0.0591    0.4565 C   0  0  1  0  0  0  0  0  0  0  0  0
    0.6318    0.0042    1.4539 H   0  0  0  0  0  0  0  0  0  0  0  0
    1.1180   -0.9044   -0.4396 C   0  0  0  0  0  0  0  0  0  0  0  0
    2.1167   -0.4553   -0.4353 H   0  0  0  0  0  0  0  0  0  0  0  0
    1.2269   -1.9229   -0.0564 H   0  0  0  0  0  0  0  0  0  0  0  0
    0.6249   -0.9384   -1.7872 O   0  0  0  0  0  0  0  0  0  0  0  0
    1.3122   -1.2701   -2.3907 H   0  0  0  0  0  0  0  0  0  0  0  0
    0.0752    1.3848   -0.0845 C   0  0  0  0  0  0  0  0  0  0  0  0
    0.9234    1.8947   -0.8071 O   0  0  0  0  0  0  0  0  0  0  0  0
   -0.9137    2.2031    0.4336 N   0  0  0  0  0  0  0  0  0  0  0  0
   -1.5210    1.7968    1.1398 H   0  0  0  0  0  0  0  0  0  0  0  0
   -1.0088    3.6307    0.1518 C   0  0  0  0  0  0  0  0  0  0  0  0
   -1.1026    3.8040   -0.9255 H   0  0  0  0  0  0  0  0  0  0  0  0
   -1.8871    4.0561    0.6466 H   0  0  0  0  0  0  0  0  0  0  0  0
   -0.1182    4.1535    0.5160 H   0  0  0  0  0  0  0  0  0  0  0  0
  1  2  1  0  0  0  0
  2  3  1  0  0  0  0
  2  4  1  0  0  0  0
  2  5  1  0  0  0  0
  5  6  2  0  0  0  0
  5  7  1  0  0  0  0
  7  8  1  0  0  0  0
  7  9  1  0  0  0  0
  9 10  1  0  0  0  0
  9 11  1  0  0  0  0
  9 16  1  0  0  0  0
 11 12  1  0  0  0  0
 11 13  1  0  0  0  0
 11 14  1  0  0  0  0
 14 15  1  0  0  0  0
 16 17  2  0  0  0  0
 16 18  1  0  0  0  0
 18 19  1  0  0  0  0
 18 20  1  0  0  0  0
 20 21  1  0  0  0  0
 20 22  1  0  0  0  0
 20 23  1  0  0  0  0
M  END
$$$$

  -OEChem-01062216093D

 23 22  0     1  0  0  0  0  0999 V2000
   -2.4361   -3.8313    1.0552 H   0  0  0  0  0  0  0  0  0  0  0  0
   -2.4979   -2.8246    0.6324 C   0  0  0  0  0  0  0  0  0  0  0  0
   -3.3982   -2.3367    1.0130 H   0  0  0  0  0  0  0  0  0  0  0  0
   -2.5649   -2.9043   -0.4554 H   0  0  0  0  0  0  0  0  0  0  0  0
   -1.2702   -2.0215    1.0166 C   0  0  0  0  0  0  0  0  0  0  0  0
   -0.4368   -2.5014    1.7680 O   0  0  0  0  0  0  0  0  0  0  0  0
   -1.1298   -0.7246    0.5662 N   0  0  0  0  0  0  0  0  0  0  0  0
   -1.7994   -0.4742   -0.1570 H   0  0  0  0  0  0  0  0  0  0  0  0
    0.1838   -0.0543    0.4544 C   0  0  1  0  0  0  0  0  0  0  0  0
    0.6320    0.0031    1.4511 H   0  0  0  0  0  0  0  0  0  0  0  0
    1.1200   -0.9037   -0.4363 C   0  0  0  0  0  0  0  0  0  0  0  0
    2.1146   -0.4455   -0.4329 H   0  0  0  0  0  0  0  0  0  0  0  0
    1.2365   -1.9180   -0.0445 H   0  0  0  0  0  0  0  0  0  0  0  0
    0.6370   -0.9551   -1.7867 O   0  0  0  0  0  0  0  0  0  0  0  0
    1.3368   -1.2656   -2.3867 H   0  0  0  0  0  0  0  0  0  0  0  0
    0.0646    1.3965   -0.0692 C   0  0  0  0  0  0  0  0  0  0  0  0
    0.7438    1.8510   -0.9817 O   0  0  0  0  0  0  0  0  0  0  0  0
   -0.6913    2.2866    0.6737 N   0  0  0  0  0  0  0  0  0  0  0  0
   -1.1805    1.9140    1.4827 H   0  0  0  0  0  0  0  0  0  0  0  0
   -0.7654    3.7161    0.3945 C   0  0  0  0  0  0  0  0  0  0  0  0
   -1.1298    3.8901   -0.6235 H   0  0  0  0  0  0  0  0  0  0  0  0
   -1.4516    4.2030    1.0939 H   0  0  0  0  0  0  0  0  0  0  0  0
    0.2217    4.1786    0.4992 H   0  0  0  0  0  0  0  0  0  0  0  0
  1  2  1  0  0  0  0
  2  3  1  0  0  0  0
  2  4  1  0  0  0  0
  2  5  1  0  0  0  0
  5  6  2  0  0  0  0
  5  7  1  0  0  0  0
  7  8  1  0  0  0  0
  7  9  1  0  0  0  0
  9 10  1  0  0  0  0
  9 11  1  0  0  0  0
  9 16  1  0  0  0  0
 11 12  1  0  0  0  0
 11 13  1  0  0  0  0
 11 14  1  0  0  0  0
 14 15  1  0  0  0  0
 16 17  2  0  0  0  0
 16 18  1  0  0  0  0
 18 19  1  0  0  0  0
 18 20  1  0  0  0  0
 20 21  1  0  0  0  0
 20 22  1  0  0  0  0
 20 23  1  0  0  0  0
M  END
$$$$

  -OEChem-01062216093D

 23 22  0     1  0  0  0  0  0999 V2000
   -2.4784   -3.8039    1.0623 H   0  0  0  0  0  0  0  0  0  0  0  0
   -2.5118   -2.8065    0.6149 C   0  0  0  0  0  0  0  0  0  0  0  0
   -3.4071   -2.2907    0.9701 H   0  0  0  0  0  0  0  0  0  0  0  0
   -2.5646   -2.9101   -0.4717 H   0  0  0  0  0  0  0  0  0  0  0  0
   -1.2725   -2.0206    0.9984 C   0  0  0  0  0  0  0  0  0  0  0  0
   -0.4371   -2.5187    1.7359 O   0  0  0  0  0  0  0  0  0  0  0  0
   -1.1273   -0.7162    0.5721 N   0  0  0  0  0  0  0  0  0  0  0  0
   -1.8061   -0.4446   -0.1348 H   0  0  0  0  0  0  0  0  0  0  0  0
    0.1871   -0.0516    0.4534 C   0  0  1  0  0  0  0  0  0  0  0  0
    0.6383   -0.0101    1.4494 H   0  0  0  0  0  0  0  0  0  0  0  0
    1.1291   -0.8998   -0.4347 C   0  0  0  0  0  0  0  0  0  0  0  0
    2.1191   -0.4320   -0.4282 H   0  0  0  0  0  0  0  0  0  0  0  0
    1.2528   -1.9101   -0.0355 H   0  0  0  0  0  0  0  0  0  0  0  0
    0.6651   -0.9685   -1.7901 O   0  0  0  0  0  0  0  0  0  0  0  0
    1.3680   -1.2940   -2.3778 H   0  0  0  0  0  0  0  0  0  0  0  0
    0.0687    1.4108   -0.0394 C   0  0  0  0  0  0  0  0  0  0  0  0
    0.4598    1.8102   -1.1284 O   0  0  0  0  0  0  0  0  0  0  0  0
   -0.3849    2.3561    0.8641 N   0  0  0  0  0  0  0  0  0  0  0  0
   -0.6999    2.0195    1.7697 H   0  0  0  0  0  0  0  0  0  0  0  0
   -0.4746    3.7815    0.5687 C   0  0  0  0  0  0  0  0  0  0  0  0
   -1.1493    3.9567   -0.2759 H   0  0  0  0  0  0  0  0  0  0  0  0
   -0.8600    4.3241    1.4372 H   0  0  0  0  0  0  0  0  0  0  0  0
    0.5130    4.1848    0.3204 H   0  0  0  0  0  0  0  0  0  0  0  0
  1  2  1  0  0  0  0
  2  3  1  0  0  0  0
  2  4  1  0  0  0  0
  2  5  1  0  0  0  0
  5  6  2  0  0  0  0
  5  7  1  0  0  0  0
  7  8  1  0  0  0  0
  7  9  1  0  0  0  0
  9 10  1  0  0  0  0
  9 11  1  0  0  0  0
  9 16  1  0  0  0  0
 11 12  1  0  0  0  0
 11 13  1  0  0  0  0
 11 14  1  0  0  0  0
 14 15  1  0  0  0  0
 16 17  2  0  0  0  0
 16 18  1  0  0  0  0
 18 19  1  0  0  0  0
 18 20  1  0  0  0  0
 20 21  1  0  0  0  0
 20 22  1  0  0  0  0
 20 23  1  0  0  0  0
M  END
$$$$

  -OEChem-01062216093D

 23 22  0     1  0  0  0  0  0999 V2000
   -2.5396   -3.7531    1.0033 H   0  0  0  0  0  0  0  0  0  0  0  0
   -2.5553   -2.7389    0.5943 C   0  0  0  0  0  0  0  0  0  0  0  0
   -3.4243   -2.2108    0.9941 H   0  0  0  0  0  0  0  0  0  0  0  0
   -2.6417   -2.7995   -0.4934 H   0  0  0  0  0  0  0  0  0  0  0  0
   -1.2826   -2.0043    0.9710 C   0  0  0  0  0  0  0  0  0  0  0  0
   -0.4500   -2.5473    1.6801 O   0  0  0  0  0  0  0  0  0  0  0  0
   -1.1014   -0.6969    0.5705 N   0  0  0  0  0  0  0  0  0  0  0  0
   -1.7805   -0.3801   -0.1179 H   0  0  0  0  0  0  0  0  0  0  0  0
    0.2266   -0.0634    0.4589 C   0  0  1  0  0  0  0  0  0  0  0  0
    0.6684   -0.0458    1.4596 H   0  0  0  0  0  0  0  0  0  0  0  0
    1.1807   -0.9027   -0.4243 C   0  0  0  0  0  0  0  0  0  0  0  0
    2.1729   -0.4412   -0.3913 H   0  0  0  0  0  0  0  0  0  0  0  0
    1.2882   -1.9174   -0.0313 H   0  0  0  0  0  0  0  0  0  0  0  0
    0.7540   -0.9629   -1.7901 O   0  0  0  0  0  0  0  0  0  0  0  0
    1.4343   -1.3740   -2.3495 H   0  0  0  0  0  0  0  0  0  0  0  0
    0.1276    1.4083   -0.0054 C   0  0  0  0  0  0  0  0  0  0  0  0
    0.0344    1.7479   -1.1771 O   0  0  0  0  0  0  0  0  0  0  0  0
    0.0118    2.3937    0.9603 N   0  0  0  0  0  0  0  0  0  0  0  0
   -0.0172    2.0942    1.9306 H   0  0  0  0  0  0  0  0  0  0  0  0
   -0.2012    3.8032    0.6518 C   0  0  0  0  0  0  0  0  0  0  0  0
   -1.1567    3.9424    0.1352 H   0  0  0  0  0  0  0  0  0  0  0  0
   -0.2160    4.3942    1.5726 H   0  0  0  0  0  0  0  0  0  0  0  0
    0.6035    4.1816    0.0125 H   0  0  0  0  0  0  0  0  0  0  0  0
  1  2  1  0  0  0  0
  2  3  1  0  0  0  0
  2  4  1  0  0  0  0
  2  5  1  0  0  0  0
  5  6  2  0  0  0  0
  5  7  1  0  0  0  0
  7  8  1  0  0  0  0
  7  9  1  0  0  0  0
  9 10  1  0  0  0  0
  9 11  1  0  0  0  0
  9 16  1  0  0  0  0
 11 12  1  0  0  0  0
 11 13  1  0  0  0  0
 11 14  1  0  0  0  0
 14 15  1  0  0  0  0
 16 17  2  0  0  0  0
 16 18  1  0  0  0  0
 18 19  1  0  0  0  0
 18 20  1  0  0  0  0
 20 21  1  0  0  0  0
 20 22  1  0  0  0  0
 20 23  1  0  0  0  0
M  END
$$$$

  -OEChem-01062216093D

 23 22  0     1  0  0  0  0  0999 V2000
   -2.5952   -3.7068    0.9868 H   0  0  0  0  0  0  0  0  0  0  0  0
   -2.5918   -2.6856    0.5956 C   0  0  0  0  0  0  0  0  0  0  0  0
   -3.4356   -2.1404    1.0250 H   0  0  0  0  0  0  0  0  0  0  0  0
   -2.7054   -2.7243   -0.4905 H   0  0  0  0  0  0  0  0  0  0  0  0
   -1.2912   -1.9926    0.9542 C   0  0  0  0  0  0  0  0  0  0  0  0
   -0.4605   -2.5674    1.6406 O   0  0  0  0  0  0  0  0  0  0  0  0
   -1.0769   -0.6903    0.5565 N   0  0  0  0  0  0  0  0  0  0  0  0
   -1.7509   -0.3369   -0.1205 H   0  0  0  0  0  0  0  0  0  0  0  0
    0.2609   -0.0794    0.4650 C   0  0  1  0  0  0  0  0  0  0  0  0
    0.6857   -0.0718    1.4729 H   0  0  0  0  0  0  0  0  0  0  0  0
    1.2272   -0.9004   -0.4178 C   0  0  0  0  0  0  0  0  0  0  0  0
    2.2236   -0.4512   -0.3542 H   0  0  0  0  0  0  0  0  0  0  0  0
    1.3133   -1.9250   -0.0458 H   0  0  0  0  0  0  0  0  0  0  0  0
    0.8240   -0.9268   -1.7908 O   0  0  0  0  0  0  0  0  0  0  0  0
    1.4693   -1.4092   -2.3348 H   0  0  0  0  0  0  0  0  0  0  0  0
    0.1743    1.3892   -0.0032 C   0  0  0  0  0  0  0  0  0  0  0  0
   -0.3201    1.6967   -1.0807 O   0  0  0  0  0  0  0  0  0  0  0  0
    0.3694    2.3998    0.9234 N   0  0  0  0  0  0  0  0  0  0  0  0
    0.6266    2.1264    1.8671 H   0  0  0  0  0  0  0  0  0  0  0  0
    0.0986    3.8065    0.6489 C   0  0  0  0  0  0  0  0  0  0  0  0
   -0.9703    3.9634    0.4710 H   0  0  0  0  0  0  0  0  0  0  0  0
    0.4031    4.4232    1.4998 H   0  0  0  0  0  0  0  0  0  0  0  0
    0.6555    4.1395   -0.2334 H   0  0  0  0  0  0  0  0  0  0  0  0
  1  2  1  0  0  0  0
  2  3  1  0  0  0  0
  2  4  1  0  0  0  0
  2  5  1  0  0  0  0
  5  6  2  0  0  0  0
  5  7  1  0  0  0  0
  7  8  1  0  0  0  0
  7  9  1  0  0  0  0
  9 10  1  0  0  0  0
  9 11  1  0  0  0  0
  9 16  1  0  0  0  0
 11 12  1  0  0  0  0
 11 13  1  0  0  0  0
 11 14  1  0  0  0  0
 14 15  1  0  0  0  0
 16 17  2  0  0  0  0
 16 18  1  0  0  0  0
 18 19  1  0  0  0  0
 18 20  1  0  0  0  0
 20 21  1  0  0  0  0
 20 22  1  0  0  0  0
 20 23  1  0  0  0  0
M  END
$$$$

  -OEChem-01062216093D

 23 22  0     1  0  0  0  0  0999 V2000
   -2.6273   -3.6906    0.9961 H   0  0  0  0  0  0  0  0  0  0  0  0
   -2.6139   -2.6675    0.6101 C   0  0  0  0  0  0  0  0  0  0  0  0
   -3.4400   -2.1104    1.0585 H   0  0  0  0  0  0  0  0  0  0  0  0
   -2.7495   -2.6984   -0.4738 H   0  0  0  0  0  0  0  0  0  0  0  0
   -1.2946   -1.9987    0.9467 C   0  0  0  0  0  0  0  0  0  0  0  0
   -0.4581   -2.5935    1.6088 O   0  0  0  0  0  0  0  0  0  0  0  0
   -1.0636   -0.7002    0.5472 N   0  0  0  0  0  0  0  0  0  0  0  0
   -1.7445   -0.3161   -0.1067 H   0  0  0  0  0  0  0  0  0  0  0  0
    0.2752   -0.0904    0.4714 C   0  0  1  0  0  0  0  0  0  0  0  0
    0.6900   -0.0839    1.4834 H   0  0  0  0  0  0  0  0  0  0  0  0
    1.2489   -0.8919   -0.4170 C   0  0  0  0  0  0  0  0  0  0  0  0
    2.2456   -0.4456   -0.3389 H   0  0  0  0  0  0  0  0  0  0  0  0
    1.3297   -1.9237   -0.0637 H   0  0  0  0  0  0  0  0  0  0  0  0
    0.8493   -0.8892   -1.7915 O   0  0  0  0  0  0  0  0  0  0  0  0
    1.4679   -1.4056   -2.3356 H   0  0  0  0  0  0  0  0  0  0  0  0
    0.1886    1.3736   -0.0059 C   0  0  0  0  0  0  0  0  0  0  0  0
   -0.5417    1.6880   -0.9392 O   0  0  0  0  0  0  0  0  0  0  0  0
    0.6655    2.3859    0.8102 N   0  0  0  0  0  0  0  0  0  0  0  0
    1.1485    2.1161    1.6618 H   0  0  0  0  0  0  0  0  0  0  0  0
    0.4235    3.8019    0.5578 C   0  0  0  0  0  0  0  0  0  0  0  0
   -0.6464    4.0253    0.6255 H   0  0  0  0  0  0  0  0  0  0  0  0
    0.9529    4.4135    1.2946 H   0  0  0  0  0  0  0  0  0  0  0  0
    0.7797    4.0807   -0.4397 H   0  0  0  0  0  0  0  0  0  0  0  0
  1  2  1  0  0  0  0
  2  3  1  0  0  0  0
  2  4  1  0  0  0  0
  2  5  1  0  0  0  0
  5  6  2  0  0  0  0
  5  7  1  0  0  0  0
  7  8  1  0  0  0  0
  7  9  1  0  0  0  0
  9 10  1  0  0  0  0
  9 11  1  0  0  0  0
  9 16  1  0  0  0  0
 11 12  1  0  0  0  0
 11 13  1  0  0  0  0
 11 14  1  0  0  0  0
 14 15  1  0  0  0  0
 16 17  2  0  0  0  0
 16 18  1  0  0  0  0
 18 19  1  0  0  0  0
 18 20  1  0  0  0  0
 20 21  1  0  0  0  0
 20 22  1  0  0  0  0
 20 23  1  0  0  0  0
M  END
$$$$

  -OEChem-01062216093D

 23 22  0     1  0  0  0  0  0999 V2000
   -2.6385   -3.6958    1.0084 H   0  0  0  0  0  0  0  0  0  0  0  0
   -2.6245   -2.6713    0.6262 C   0  0  0  0  0  0  0  0  0  0  0  0
   -3.4379   -2.1095    1.0917 H   0  0  0  0  0  0  0  0  0  0  0  0
   -2.7798   -2.6967   -0.4551 H   0  0  0  0  0  0  0  0  0  0  0  0
   -1.2945   -2.0137    0.9410 C   0  0  0  0  0  0  0  0  0  0  0  0
   -0.4494   -2.6183    1.5832 O   0  0  0  0  0  0  0  0  0  0  0  0
   -1.0609   -0.7159    0.5416 N   0  0  0  0  0  0  0  0  0  0  0  0
   -1.7534   -0.3101   -0.0872 H   0  0  0  0  0  0  0  0  0  0  0  0
    0.2732   -0.0947    0.4802 C   0  0  1  0  0  0  0  0  0  0  0  0
    0.6803   -0.0863    1.4953 H   0  0  0  0  0  0  0  0  0  0  0  0
    1.2535   -0.8772   -0.4160 C   0  0  0  0  0  0  0  0  0  0  0  0
    2.2489   -0.4292   -0.3302 H   0  0  0  0  0  0  0  0  0  0  0  0
    1.3367   -1.9145   -0.0793 H   0  0  0  0  0  0  0  0  0  0  0  0
    0.8502   -0.8513   -1.7895 O   0  0  0  0  0  0  0  0  0  0  0  0
    1.4564   -1.3759   -2.3401 H   0  0  0  0  0  0  0  0  0  0  0  0
    0.1840    1.3667   -0.0030 C   0  0  0  0  0  0  0  0  0  0  0  0
   -0.6975    1.7137   -0.7830 O   0  0  0  0  0  0  0  0  0  0  0  0
    0.9069    2.3516    0.6485 N   0  0  0  0  0  0  0  0  0  0  0  0
    1.5556    2.0600    1.3732 H   0  0  0  0  0  0  0  0  0  0  0  0
    0.7428    3.7756    0.3807 C   0  0  0  0  0  0  0  0  0  0  0  0
   -0.2653    4.1030    0.6556 H   0  0  0  0  0  0  0  0  0  0  0  0
    1.4662    4.3558    0.9618 H   0  0  0  0  0  0  0  0  0  0  0  0
    0.9050    3.9874   -0.6816 H   0  0  0  0  0  0  0  0  0  0  0  0
  1  2  1  0  0  0  0
  2  3  1  0  0  0  0
  2  4  1  0  0  0  0
  2  5  1  0  0  0  0
  5  6  2  0  0  0  0
  5  7  1  0  0  0  0
  7  8  1  0  0  0  0
  7  9  1  0  0  0  0
  9 10  1  0  0  0  0
  9 11  1  0  0  0  0
  9 16  1  0  0  0  0
 11 12  1  0  0  0  0
 11 13  1  0  0  0  0
 11 14  1  0  0  0  0
 14 15  1  0  0  0  0
 16 17  2  0  0  0  0
 16 18  1  0  0  0  0
 18 19  1  0  0  0  0
 18 20  1  0  0  0  0
 20 21  1  0  0  0  0
 20 22  1  0  0  0  0
 20 23  1  0  0  0  0
M  END
$$$$

  -OEChem-01062216093D

 23 22  0     1  0  0  0  0  0999 V2000
   -2.6527   -3.7006    1.0122 H   0  0  0  0  0  0  0  0  0  0  0  0
   -2.6368   -2.6712    0.6438 C   0  0  0  0  0  0  0  0  0  0  0  0
   -3.4286   -2.1063    1.1413 H   0  0  0  0  0  0  0  0  0  0  0  0
   -2.8252   -2.6795   -0.4325 H   0  0  0  0  0  0  0  0  0  0  0  0
   -1.2897   -2.0339    0.9276 C   0  0  0  0  0  0  0  0  0  0  0  0
   -0.4343   -2.6568    1.5379 O   0  0  0  0  0  0  0  0  0  0  0  0
   -1.0523   -0.7347    0.5361 N   0  0  0  0  0  0  0  0  0  0  0  0
   -1.7651   -0.2962   -0.0466 H   0  0  0  0  0  0  0  0  0  0  0  0
    0.2762   -0.0992    0.4898 C   0  0  1  0  0  0  0  0  0  0  0  0
    0.6791   -0.0921    1.5067 H   0  0  0  0  0  0  0  0  0  0  0  0
    1.2613   -0.8628   -0.4167 C   0  0  0  0  0  0  0  0  0  0  0  0
    2.2555   -0.4138   -0.3247 H   0  0  0  0  0  0  0  0  0  0  0  0
    1.3475   -1.9052   -0.0970 H   0  0  0  0  0  0  0  0  0  0  0  0
    0.8540   -0.8154   -1.7888 O   0  0  0  0  0  0  0  0  0  0  0  0
    1.4433   -1.3534   -2.3453 H   0  0  0  0  0  0  0  0  0  0  0  0
    0.1791    1.3629    0.0089 C   0  0  0  0  0  0  0  0  0  0  0  0
   -0.8132    1.7541   -0.5991 O   0  0  0  0  0  0  0  0  0  0  0  0
    1.0985    2.3005    0.4477 N   0  0  0  0  0  0  0  0  0  0  0  0
    1.8825    1.9708    1.0022 H   0  0  0  0  0  0  0  0  0  0  0  0
    1.0045    3.7208    0.1319 C   0  0  0  0  0  0  0  0  0  0  0  0
    0.0907    4.1487    0.5578 H   0  0  0  0  0  0  0  0  0  0  0  0
    1.8634    4.2581    0.5453 H   0  0  0  0  0  0  0  0  0  0  0  0
    0.9923    3.8719   -0.9529 H   0  0  0  0  0  0  0  0  0  0  0  0
  1  2  1  0  0  0  0
  2  3  1  0  0  0  0
  2  4  1  0  0  0  0
  2  5  1  0  0  0  0
  5  6  2  0  0  0  0
  5  7  1  0  0  0  0
  7  8  1  0  0  0  0
  7  9  1  0  0  0  0
  9 10  1  0  0  0  0
  9 11  1  0  0  0  0
  9 16  1  0  0  0  0
 11 12  1  0  0  0  0
 11 13  1  0  0  0  0
 11 14  1  0  0  0  0
 14 15  1  0  0  0  0
 16 17  2  0  0  0  0
 16 18  1  0  0  0  0
 18 19  1  0  0  0  0
 18 20  1  0  0  0  0
 20 21  1  0  0  0  0
 20 22  1  0  0  0  0
 20 23  1  0  0  0  0
M  END
$$$$

  -OEChem-01062216093D

 23 22  0     1  0  0  0  0  0999 V2000
   -2.6613   -3.7035    0.9991 H   0  0  0  0  0  0  0  0  0  0  0  0
   -2.6443   -2.6668    0.6518 C   0  0  0  0  0  0  0  0  0  0  0  0
   -3.4181   -2.1045    1.1799 H   0  0  0  0  0  0  0  0  0  0  0  0
   -2.8588   -2.6505   -0.4196 H   0  0  0  0  0  0  0  0  0  0  0  0
   -1.2844   -2.0487    0.9156 C   0  0  0  0  0  0  0  0  0  0  0  0
   -0.4226   -2.6908    1.4961 O   0  0  0  0  0  0  0  0  0  0  0  0
   -1.0411   -0.7473    0.5356 N   0  0  0  0  0  0  0  0  0  0  0  0
   -1.7718   -0.2766    0.0027 H   0  0  0  0  0  0  0  0  0  0  0  0
    0.2836   -0.1026    0.5029 C   0  0  1  0  0  0  0  0  0  0  0  0
    0.6871   -0.0995    1.5196 H   0  0  0  0  0  0  0  0  0  0  0  0
    1.2682   -0.8539   -0.4146 C   0  0  0  0  0  0  0  0  0  0  0  0
    2.2644   -0.4104   -0.3188 H   0  0  0  0  0  0  0  0  0  0  0  0
    1.3531   -1.9009   -0.1105 H   0  0  0  0  0  0  0  0  0  0  0  0
    0.8546   -0.7853   -1.7843 O   0  0  0  0  0  0  0  0  0  0  0  0
    1.4226   -1.3405   -2.3461 H   0  0  0  0  0  0  0  0  0  0  0  0
    0.1795    1.3624    0.0294 C   0  0  0  0  0  0  0  0  0  0  0  0
   -0.8867    1.8077   -0.3870 O   0  0  0  0  0  0  0  0  0  0  0  0
    1.2374    2.2357    0.2157 N   0  0  0  0  0  0  0  0  0  0  0  0
    2.1095    1.8516    0.5655 H   0  0  0  0  0  0  0  0  0  0  0  0
    1.1902    3.6401   -0.1723 C   0  0  0  0  0  0  0  0  0  0  0  0
    0.4107    4.1672    0.3878 H   0  0  0  0  0  0  0  0  0  0  0  0
    2.1503    4.1221    0.0351 H   0  0  0  0  0  0  0  0  0  0  0  0
    0.9799    3.7345   -1.2429 H   0  0  0  0  0  0  0  0  0  0  0  0
  1  2  1  0  0  0  0
  2  3  1  0  0  0  0
  2  4  1  0  0  0  0
  2  5  1  0  0  0  0
  5  6  2  0  0  0  0
  5  7  1  0  0  0  0
  7  8  1  0  0  0  0
  7  9  1  0  0  0  0
  9 10  1  0  0  0  0
  9 11  1  0  0  0  0
  9 16  1  0  0  0  0
 11 12  1  0  0  0  0
 11 13  1  0  0  0  0
 11 14  1  0  0  0  0
 14 15  1  0  0  0  0
 16 17  2  0  0  0  0
 16 18  1  0  0  0  0
 18 19  1  0  0  0  0
 18 20  1  0  0  0  0
 20 21  1  0  0  0  0
 20 22  1  0  0  0  0
 20 23  1  0  0  0  0
M  END
$$$$

  -OEChem-01062216093D

 23 22  0     1  0  0  0  0  0999 V2000
   -2.6649   -3.7025    0.9934 H   0  0  0  0  0  0  0  0  0  0  0  0
   -2.6683   -2.6494    0.6991 C   0  0  0  0  0  0  0  0  0  0  0  0
   -3.3498   -2.1018    1.3546 H   0  0  0  0  0  0  0  0  0  0  0  0
   -3.0237   -2.5726   -0.3312 H   0  0  0  0  0  0  0  0  0  0  0  0
   -1.2704   -2.0711    0.8084 C   0  0  0  0  0  0  0  0  0  0  0  0
   -0.3529   -2.7589    1.2295 O   0  0  0  0  0  0  0  0  0  0  0  0
   -1.0381   -0.7627    0.4473 N   0  0  0  0  0  0  0  0  0  0  0  0
   -1.8262   -0.2078    0.1168 H   0  0  0  0  0  0  0  0  0  0  0  0
    0.2771   -0.1005    0.4690 C   0  0  1  0  0  0  0  0  0  0  0  0
    0.7638   -0.3223    1.4234 H   0  0  0  0  0  0  0  0  0  0  0  0
    1.1647   -0.6360   -0.6679 C   0  0  0  0  0  0  0  0  0  0  0  0
    2.1776   -0.2338   -0.5672 H   0  0  0  0  0  0  0  0  0  0  0  0
    1.2393   -1.7257   -0.5974 H   0  0  0  0  0  0  0  0  0  0  0  0
    0.6353   -0.2767   -1.9497 O   0  0  0  0  0  0  0  0  0  0  0  0
    1.1243   -0.7213   -2.6637 H   0  0  0  0  0  0  0  0  0  0  0  0
    0.1466    1.4345    0.3706 C   0  0  0  0  0  0  0  0  0  0  0  0
   -0.9616    1.9634    0.3694 O   0  0  0  0  0  0  0  0  0  0  0  0
    1.2707    2.2430    0.3747 N   0  0  0  0  0  0  0  0  0  0  0  0
    2.1747    1.7853    0.3164 H   0  0  0  0  0  0  0  0  0  0  0  0
    1.2101    3.6949    0.2609 C   0  0  0  0  0  0  0  0  0  0  0  0
    0.6051    4.1193    1.0690 H   0  0  0  0  0  0  0  0  0  0  0  0
    2.2160    4.1206    0.3249 H   0  0  0  0  0  0  0  0  0  0  0  0
    0.7703    3.9852   -0.6990 H   0  0  0  0  0  0  0  0  0  0  0  0
  1  2  1  0  0  0  0
  2  3  1  0  0  0  0
  2  4  1  0  0  0  0
  2  5  1  0  0  0  0
  5  6  2  0  0  0  0
  5  7  1  0  0  0  0
  7  8  1  0  0  0  0
  7  9  1  0  0  0  0
  9 10  1  0  0  0  0
  9 11  1  0  0  0  0
  9 16  1  0  0  0  0
 11 12  1  0  0  0  0
 11 13  1  0  0  0  0
 11 14  1  0  0  0  0
 14 15  1  0  0  0  0
 16 17  2  0  0  0  0
 16 18  1  0  0  0  0
 18 19  1  0  0  0  0
 18 20  1  0  0  0  0
 20 21  1  0  0  0  0
 20 22  1  0  0  0  0
 20 23  1  0  0  0  0
M  END
$$$$

  -OEChem-01062216093D

 23 22  0     1  0  0  0  0  0999 V2000
   -2.6969   -3.6706    1.0030 H   0  0  0  0  0  0  0  0  0  0  0  0
   -2.6833   -2.6164    0.7128 C   0  0  0  0  0  0  0  0  0  0  0  0
   -3.3290   -2.0548    1.3923 H   0  0  0  0  0  0  0  0  0  0  0  0
   -3.0702   -2.5261   -0.3052 H   0  0  0  0  0  0  0  0  0  0  0  0
   -1.2682   -2.0741    0.7777 C   0  0  0  0  0  0  0  0  0  0  0  0
   -0.3537   -2.7908    1.1544 O   0  0  0  0  0  0  0  0  0  0  0  0
   -1.0205   -0.7652    0.4283 N   0  0  0  0  0  0  0  0  0  0  0  0
   -1.8166   -0.1762    0.1892 H   0  0  0  0  0  0  0  0  0  0  0  0
    0.3009   -0.1144    0.4626 C   0  0  1  0  0  0  0  0  0  0  0  0
    0.7801   -0.3409    1.4200 H   0  0  0  0  0  0  0  0  0  0  0  0
    1.1960   -0.6544   -0.6679 C   0  0  0  0  0  0  0  0  0  0  0  0
    2.2129   -0.2658   -0.5553 H   0  0  0  0  0  0  0  0  0  0  0  0
    1.2588   -1.7447   -0.6007 H   0  0  0  0  0  0  0  0  0  0  0  0
    0.6833   -0.2881   -1.9545 O   0  0  0  0  0  0  0  0  0  0  0  0
    1.1476   -0.7702   -2.6611 H   0  0  0  0  0  0  0  0  0  0  0  0
    0.1674    1.4224    0.3745 C   0  0  0  0  0  0  0  0  0  0  0  0
   -0.9133    1.9550    0.6112 O   0  0  0  0  0  0  0  0  0  0  0  0
    1.2547    2.2287    0.0827 N   0  0  0  0  0  0  0  0  0  0  0  0
    2.0935    1.7628   -0.2487 H   0  0  0  0  0  0  0  0  0  0  0  0
    1.1491    3.6732   -0.0828 C   0  0  0  0  0  0  0  0  0  0  0  0
    0.7394    4.1349    0.8219 H   0  0  0  0  0  0  0  0  0  0  0  0
    2.1367    4.1052   -0.2712 H   0  0  0  0  0  0  0  0  0  0  0  0
    0.4968    3.9141   -0.9287 H   0  0  0  0  0  0  0  0  0  0  0  0
  1  2  1  0  0  0  0
  2  3  1  0  0  0  0
  2  4  1  0  0  0  0
  2  5  1  0  0  0  0
  5  6  2  0  0  0  0
  5  7  1  0  0  0  0
  7  8  1  0  0  0  0
  7  9  1  0  0  0  0
  9 10  1  0  0  0  0
  9 11  1  0  0  0  0
  9 16  1  0  0  0  0
 11 12  1  0  0  0  0
 11 13  1  0  0  0  0
 11 14  1  0  0  0  0
 14 15  1  0  0  0  0
 16 17  2  0  0  0  0
 16 18  1  0  0  0  0
 18 19  1  0  0  0  0
 18 20  1  0  0  0  0
 20 21  1  0  0  0  0
 20 22  1  0  0  0  0
 20 23  1  0  0  0  0
M  END
$$$$

  -OEChem-01062216093D

 23 22  0     1  0  0  0  0  0999 V2000
   -2.7229   -3.6356    1.0273 H   0  0  0  0  0  0  0  0  0  0  0  0
   -2.6973   -2.5831    0.7322 C   0  0  0  0  0  0  0  0  0  0  0  0
   -3.3054   -2.0055    1.4326 H   0  0  0  0  0  0  0  0  0  0  0  0
   -3.1195   -2.4880   -0.2711 H   0  0  0  0  0  0  0  0  0  0  0  0
   -1.2694   -2.0716    0.7432 C   0  0  0  0  0  0  0  0  0  0  0  0
   -0.3576   -2.8117    1.0785 O   0  0  0  0  0  0  0  0  0  0  0  0
   -1.0098   -0.7627    0.4006 N   0  0  0  0  0  0  0  0  0  0  0  0
   -1.8080   -0.1506    0.2414 H   0  0  0  0  0  0  0  0  0  0  0  0
    0.3182   -0.1248    0.4446 C   0  0  1  0  0  0  0  0  0  0  0  0
    0.7842   -0.3516    1.4085 H   0  0  0  0  0  0  0  0  0  0  0  0
    1.2338   -0.6729   -0.6675 C   0  0  0  0  0  0  0  0  0  0  0  0
    2.2503   -0.2893   -0.5338 H   0  0  0  0  0  0  0  0  0  0  0  0
    1.2909   -1.7631   -0.5946 H   0  0  0  0  0  0  0  0  0  0  0  0
    0.7522   -0.3127   -1.9683 O   0  0  0  0  0  0  0  0  0  0  0  0
    1.1939   -0.8421   -2.6557 H   0  0  0  0  0  0  0  0  0  0  0  0
    0.1839    1.4126    0.3624 C   0  0  0  0  0  0  0  0  0  0  0  0
   -0.8148    1.9531    0.8278 O   0  0  0  0  0  0  0  0  0  0  0  0
    1.1633    2.2069   -0.2086 N   0  0  0  0  0  0  0  0  0  0  0  0
    1.8445    1.7195   -0.7840 H   0  0  0  0  0  0  0  0  0  0  0  0
    1.0022    3.6432   -0.3988 C   0  0  0  0  0  0  0  0  0  0  0  0
    0.8072    4.1382    0.5584 H   0  0  0  0  0  0  0  0  0  0  0  0
    1.9135    4.0720   -0.8264 H   0  0  0  0  0  0  0  0  0  0  0  0
    0.1684    3.8482   -1.0784 H   0  0  0  0  0  0  0  0  0  0  0  0
  1  2  1  0  0  0  0
  2  3  1  0  0  0  0
  2  4  1  0  0  0  0
  2  5  1  0  0  0  0
  5  6  2  0  0  0  0
  5  7  1  0  0  0  0
  7  8  1  0  0  0  0
  7  9  1  0  0  0  0
  9 10  1  0  0  0  0
  9 11  1  0  0  0  0
  9 16  1  0  0  0  0
 11 12  1  0  0  0  0
 11 13  1  0  0  0  0
 11 14  1  0  0  0  0
 14 15  1  0  0  0  0
 16 17  2  0  0  0  0
 16 18  1  0  0  0  0
 18 19  1  0  0  0  0
 18 20  1  0  0  0  0
 20 21  1  0  0  0  0
 20 22  1  0  0  0  0
 20 23  1  0  0  0  0
M  END
$$$$

  -OEChem-01062216093D

 23 22  0     1  0  0  0  0  0999 V2000
   -2.7301   -3.6168    1.0447 H   0  0  0  0  0  0  0  0  0  0  0  0
   -2.7004   -2.5657    0.7444 C   0  0  0  0  0  0  0  0  0  0  0  0
   -3.2927   -1.9804    1.4519 H   0  0  0  0  0  0  0  0  0  0  0  0
   -3.1374   -2.4715   -0.2526 H   0  0  0  0  0  0  0  0  0  0  0  0
   -1.2683   -2.0657    0.7306 C   0  0  0  0  0  0  0  0  0  0  0  0
   -0.3578   -2.8150    1.0474 O   0  0  0  0  0  0  0  0  0  0  0  0
   -1.0059   -0.7570    0.3876 N   0  0  0  0  0  0  0  0  0  0  0  0
   -1.8057   -0.1404    0.2615 H   0  0  0  0  0  0  0  0  0  0  0  0
    0.3262   -0.1257    0.4287 C   0  0  1  0  0  0  0  0  0  0  0  0
    0.7862   -0.3498    1.3961 H   0  0  0  0  0  0  0  0  0  0  0  0
    1.2525   -0.6861   -0.6704 C   0  0  0  0  0  0  0  0  0  0  0  0
    2.2664   -0.2983   -0.5282 H   0  0  0  0  0  0  0  0  0  0  0  0
    1.3115   -1.7750   -0.5838 H   0  0  0  0  0  0  0  0  0  0  0  0
    0.7909   -0.3439   -1.9844 O   0  0  0  0  0  0  0  0  0  0  0  0
    1.2210   -0.9068   -2.6531 H   0  0  0  0  0  0  0  0  0  0  0  0
    0.1967    1.4118    0.3481 C   0  0  0  0  0  0  0  0  0  0  0  0
   -0.6717    1.9700    1.0099 O   0  0  0  0  0  0  0  0  0  0  0  0
    1.0018    2.1796   -0.4746 N   0  0  0  0  0  0  0  0  0  0  0  0
    1.4893    1.6574   -1.2001 H   0  0  0  0  0  0  0  0  0  0  0  0
    0.7897    3.6074   -0.6784 C   0  0  0  0  0  0  0  0  0  0  0  0
    0.8102    4.1402    0.2783 H   0  0  0  0  0  0  0  0  0  0  0  0
    1.5784    4.0187   -1.3157 H   0  0  0  0  0  0  0  0  0  0  0  0
   -0.1771    3.7857   -1.1605 H   0  0  0  0  0  0  0  0  0  0  0  0
  1  2  1  0  0  0  0
  2  3  1  0  0  0  0
  2  4  1  0  0  0  0
  2  5  1  0  0  0  0
  5  6  2  0  0  0  0
  5  7  1  0  0  0  0
  7  8  1  0  0  0  0
  7  9  1  0  0  0  0
  9 10  1  0  0  0  0
  9 11  1  0  0  0  0
  9 16  1  0  0  0  0
 11 12  1  0  0  0  0
 11 13  1  0  0  0  0
 11 14  1  0  0  0  0
 14 15  1  0  0  0  0
 16 17  2  0  0  0  0
 16 18  1  0  0  0  0
 18 19  1  0  0  0  0
 18 20  1  0  0  0  0
 20 21  1  0  0  0  0
 20 22  1  0  0  0  0
 20 23  1  0  0  0  0
M  END
$$$$

  -OEChem-01062216093D

 23 22  0     1  0  0  0  0  0999 V2000
   -2.7198   -3.6156    1.0523 H   0  0  0  0  0  0  0  0  0  0  0  0
   -2.6942   -2.5652    0.7492 C   0  0  0  0  0  0  0  0  0  0  0  0
   -3.2932   -1.9814    1.4524 H   0  0  0  0  0  0  0  0  0  0  0  0
   -3.1272   -2.4760   -0.2500 H   0  0  0  0  0  0  0  0  0  0  0  0
   -1.2644   -2.0584    0.7411 C   0  0  0  0  0  0  0  0  0  0  0  0
   -0.3529   -2.8028    1.0657 O   0  0  0  0  0  0  0  0  0  0  0  0
   -1.0062   -0.7505    0.3909 N   0  0  0  0  0  0  0  0  0  0  0  0
   -1.8088   -0.1443    0.2404 H   0  0  0  0  0  0  0  0  0  0  0  0
    0.3258   -0.1179    0.4176 C   0  0  1  0  0  0  0  0  0  0  0  0
    0.7905   -0.3364    1.3844 H   0  0  0  0  0  0  0  0  0  0  0  0
    1.2472   -0.6974   -0.6776 C   0  0  0  0  0  0  0  0  0  0  0  0
    2.2593   -0.3011   -0.5450 H   0  0  0  0  0  0  0  0  0  0  0  0
    1.3117   -1.7839   -0.5696 H   0  0  0  0  0  0  0  0  0  0  0  0
    0.7881   -0.3832   -2.0012 O   0  0  0  0  0  0  0  0  0  0  0  0
    1.2302   -0.9545   -2.6554 H   0  0  0  0  0  0  0  0  0  0  0  0
    0.2053    1.4195    0.3332 C   0  0  0  0  0  0  0  0  0  0  0  0
   -0.4898    2.0045    1.1551 O   0  0  0  0  0  0  0  0  0  0  0  0
    0.7749    2.1503   -0.6931 N   0  0  0  0  0  0  0  0  0  0  0  0
    1.0998    1.5918   -1.4827 H   0  0  0  0  0  0  0  0  0  0  0  0
    0.5188    3.5700   -0.9007 C   0  0  0  0  0  0  0  0  0  0  0  0
    0.7630    4.1407    0.0016 H   0  0  0  0  0  0  0  0  0  0  0  0
    1.1354    3.9477   -1.7219 H   0  0  0  0  0  0  0  0  0  0  0  0
   -0.5343    3.7373   -1.1495 H   0  0  0  0  0  0  0  0  0  0  0  0
  1  2  1  0  0  0  0
  2  3  1  0  0  0  0
  2  4  1  0  0  0  0
  2  5  1  0  0  0  0
  5  6  2  0  0  0  0
  5  7  1  0  0  0  0
  7  8  1  0  0  0  0
  7  9  1  0  0  0  0
  9 10  1  0  0  0  0
  9 11  1  0  0  0  0
  9 16  1  0  0  0  0
 11 12  1  0  0  0  0
 11 13  1  0  0  0  0
 11 14  1  0  0  0  0
 14 15  1  0  0  0  0
 16 17  2  0  0  0  0
 16 18  1  0  0  0  0
 18 19  1  0  0  0  0
 18 20  1  0  0  0  0
 20 21  1  0  0  0  0
 20 22  1  0  0  0  0
 20 23  1  0  0  0  0
M  END
$$$$

  -OEChem-01062216093D

 23 22  0     1  0  0  0  0  0999 V2000
   -2.6963   -3.6333    1.0558 H   0  0  0  0  0  0  0  0  0  0  0  0
   -2.6821   -2.5830    0.7516 C   0  0  0  0  0  0  0  0  0  0  0  0
   -3.3019   -2.0076    1.4435 H   0  0  0  0  0  0  0  0  0  0  0  0
   -3.0991   -2.5024   -0.2550 H   0  0  0  0  0  0  0  0  0  0  0  0
   -1.2605   -2.0540    0.7678 C   0  0  0  0  0  0  0  0  0  0  0  0
   -0.3453   -2.7801    1.1213 O   0  0  0  0  0  0  0  0  0  0  0  0
   -1.0144   -0.7474    0.4025 N   0  0  0  0  0  0  0  0  0  0  0  0
   -1.8204   -0.1664    0.1889 H   0  0  0  0  0  0  0  0  0  0  0  0
    0.3138   -0.1053    0.4095 C   0  0  1  0  0  0  0  0  0  0  0  0
    0.7860   -0.3126    1.3755 H   0  0  0  0  0  0  0  0  0  0  0  0
    1.2271   -0.7031   -0.6839 C   0  0  0  0  0  0  0  0  0  0  0  0
    2.2367   -0.2952   -0.5677 H   0  0  0  0  0  0  0  0  0  0  0  0
    1.3011   -1.7867   -0.5532 H   0  0  0  0  0  0  0  0  0  0  0  0
    0.7603   -0.4220   -2.0135 O   0  0  0  0  0  0  0  0  0  0  0  0
    1.2329   -0.9793   -2.6586 H   0  0  0  0  0  0  0  0  0  0  0  0
    0.1982    1.4311    0.3123 C   0  0  0  0  0  0  0  0  0  0  0  0
   -0.2725    2.0525    1.2562 O   0  0  0  0  0  0  0  0  0  0  0  0
    0.4844    2.1179   -0.8520 N   0  0  0  0  0  0  0  0  0  0  0  0
    0.6859    1.5319   -1.6636 H   0  0  0  0  0  0  0  0  0  0  0  0
    0.2091    3.5353   -1.0473 C   0  0  0  0  0  0  0  0  0  0  0  0
    0.6920    4.1316   -0.2660 H   0  0  0  0  0  0  0  0  0  0  0  0
    0.5945    3.8642   -2.0171 H   0  0  0  0  0  0  0  0  0  0  0  0
   -0.8690    3.7234   -1.0187 H   0  0  0  0  0  0  0  0  0  0  0  0
  1  2  1  0  0  0  0
  2  3  1  0  0  0  0
  2  4  1  0  0  0  0
  2  5  1  0  0  0  0
  5  6  2  0  0  0  0
  5  7  1  0  0  0  0
  7  8  1  0  0  0  0
  7  9  1  0  0  0  0
  9 10  1  0  0  0  0
  9 11  1  0  0  0  0
  9 16  1  0  0  0  0
 11 12  1  0  0  0  0
 11 13  1  0  0  0  0
 11 14  1  0  0  0  0
 14 15  1  0  0  0  0
 16 17  2  0  0  0  0
 16 18  1  0  0  0  0
 18 19  1  0  0  0  0
 18 20  1  0  0  0  0
 20 21  1  0  0  0  0
 20 22  1  0  0  0  0
 20 23  1  0  0  0  0
M  END
$$$$

  -OEChem-01062216093D

 23 22  0     1  0  0  0  0  0999 V2000
   -2.6463   -3.6870    1.0836 H   0  0  0  0  0  0  0  0  0  0  0  0
   -2.6584   -2.6446    0.7526 C   0  0  0  0  0  0  0  0  0  0  0  0
   -3.3254   -2.0762    1.4055 H   0  0  0  0  0  0  0  0  0  0  0  0
   -3.0385   -2.6047   -0.2711 H   0  0  0  0  0  0  0  0  0  0  0  0
   -1.2584   -2.0624    0.8090 C   0  0  0  0  0  0  0  0  0  0  0  0
   -0.3307   -2.7467    1.2099 O   0  0  0  0  0  0  0  0  0  0  0  0
   -1.0449   -0.7562    0.4221 N   0  0  0  0  0  0  0  0  0  0  0  0
   -1.8524   -0.2282    0.1043 H   0  0  0  0  0  0  0  0  0  0  0  0
    0.2703   -0.0878    0.4105 C   0  0  1  0  0  0  0  0  0  0  0  0
    0.7537   -0.2761    1.3751 H   0  0  0  0  0  0  0  0  0  0  0  0
    1.1851   -0.6827   -0.6824 C   0  0  0  0  0  0  0  0  0  0  0  0
    2.1864   -0.2514   -0.5796 H   0  0  0  0  0  0  0  0  0  0  0  0
    1.2825   -1.7626   -0.5355 H   0  0  0  0  0  0  0  0  0  0  0  0
    0.7047   -0.4308   -2.0135 O   0  0  0  0  0  0  0  0  0  0  0  0
    1.2233   -0.9468   -2.6579 H   0  0  0  0  0  0  0  0  0  0  0  0
    0.1359    1.4445    0.2921 C   0  0  0  0  0  0  0  0  0  0  0  0
   -0.0591    2.1117    1.2991 O   0  0  0  0  0  0  0  0  0  0  0  0
    0.1067    2.0787   -0.9344 N   0  0  0  0  0  0  0  0  0  0  0  0
    0.2383    1.4773   -1.7492 H   0  0  0  0  0  0  0  0  0  0  0  0
   -0.0813    3.5121   -1.1134 C   0  0  0  0  0  0  0  0  0  0  0  0
    0.7142    4.0688   -0.6070 H   0  0  0  0  0  0  0  0  0  0  0  0
   -0.0577    3.7657   -2.1775 H   0  0  0  0  0  0  0  0  0  0  0  0
   -1.0473    3.8257   -0.7041 H   0  0  0  0  0  0  0  0  0  0  0  0
  1  2  1  0  0  0  0
  2  3  1  0  0  0  0
  2  4  1  0  0  0  0
  2  5  1  0  0  0  0
  5  6  2  0  0  0  0
  5  7  1  0  0  0  0
  7  8  1  0  0  0  0
  7  9  1  0  0  0  0
  9 10  1  0  0  0  0
  9 11  1  0  0  0  0
  9 16  1  0  0  0  0
 11 12  1  0  0  0  0
 11 13  1  0  0  0  0
 11 14  1  0  0  0  0
 14 15  1  0  0  0  0
 16 17  2  0  0  0  0
 16 18  1  0  0  0  0
 18 19  1  0  0  0  0
 18 20  1  0  0  0  0
 20 21  1  0  0  0  0
 20 22  1  0  0  0  0
 20 23  1  0  0  0  0
M  END
$$$$

  -OEChem-01062216093D

 23 22  0     1  0  0  0  0  0999 V2000
   -2.5908   -3.7491    1.0863 H   0  0  0  0  0  0  0  0  0  0  0  0
   -2.6313   -2.7090    0.7506 C   0  0  0  0  0  0  0  0  0  0  0  0
   -3.3356   -2.1626    1.3826 H   0  0  0  0  0  0  0  0  0  0  0  0
   -2.9847   -2.6865   -0.2830 H   0  0  0  0  0  0  0  0  0  0  0  0
   -1.2552   -2.0772    0.8429 C   0  0  0  0  0  0  0  0  0  0  0  0
   -0.3147   -2.7269    1.2701 O   0  0  0  0  0  0  0  0  0  0  0  0
   -1.0752   -0.7683    0.4472 N   0  0  0  0  0  0  0  0  0  0  0  0
   -1.8829   -0.2833    0.0678 H   0  0  0  0  0  0  0  0  0  0  0  0
    0.2259   -0.0726    0.4297 C   0  0  1  0  0  0  0  0  0  0  0  0
    0.7212   -0.2531    1.3900 H   0  0  0  0  0  0  0  0  0  0  0  0
    1.1373   -0.6432   -0.6760 C   0  0  0  0  0  0  0  0  0  0  0  0
    2.1312   -0.1928   -0.5838 H   0  0  0  0  0  0  0  0  0  0  0  0
    1.2564   -1.7223   -0.5383 H   0  0  0  0  0  0  0  0  0  0  0  0
    0.6302   -0.3876   -1.9967 O   0  0  0  0  0  0  0  0  0  0  0  0
    1.1708   -0.8578   -2.6578 H   0  0  0  0  0  0  0  0  0  0  0  0
    0.0681    1.4550    0.3030 C   0  0  0  0  0  0  0  0  0  0  0  0
    0.1661    2.1646    1.2950 O   0  0  0  0  0  0  0  0  0  0  0  0
   -0.2767    2.0346   -0.9027 N   0  0  0  0  0  0  0  0  0  0  0  0
   -0.2106    1.4168   -1.7132 H   0  0  0  0  0  0  0  0  0  0  0  0
   -0.3656    3.4742   -1.1087 C   0  0  0  0  0  0  0  0  0  0  0  0
    0.6071    3.9463   -0.9356 H   0  0  0  0  0  0  0  0  0  0  0  0
   -0.6799    3.6901   -2.1343 H   0  0  0  0  0  0  0  0  0  0  0  0
   -1.0982    3.9155   -0.4246 H   0  0  0  0  0  0  0  0  0  0  0  0
  1  2  1  0  0  0  0
  2  3  1  0  0  0  0
  2  4  1  0  0  0  0
  2  5  1  0  0  0  0
  5  6  2  0  0  0  0
  5  7  1  0  0  0  0
  7  8  1  0  0  0  0
  7  9  1  0  0  0  0
  9 10  1  0  0  0  0
  9 11  1  0  0  0  0
  9 16  1  0  0  0  0
 11 12  1  0  0  0  0
 11 13  1  0  0  0  0
 11 14  1  0  0  0  0
 14 15  1  0  0  0  0
 16 17  2  0  0  0  0
 16 18  1  0  0  0  0
 18 19  1  0  0  0  0
 18 20  1  0  0  0  0
 20 21  1  0  0  0  0
 20 22  1  0  0  0  0
 20 23  1  0  0  0  0
M  END
$$$$

  -OEChem-01062216093D

 23 22  0     1  0  0  0  0  0999 V2000
   -2.5791   -3.7717    1.0879 H   0  0  0  0  0  0  0  0  0  0  0  0
   -2.6269   -2.7303    0.7572 C   0  0  0  0  0  0  0  0  0  0  0  0
   -3.3351   -2.1919    1.3916 H   0  0  0  0  0  0  0  0  0  0  0  0
   -2.9804   -2.7055   -0.2764 H   0  0  0  0  0  0  0  0  0  0  0  0
   -1.2553   -2.0894    0.8532 C   0  0  0  0  0  0  0  0  0  0  0  0
   -0.3113   -2.7327    1.2818 O   0  0  0  0  0  0  0  0  0  0  0  0
   -1.0819   -0.7794    0.4583 N   0  0  0  0  0  0  0  0  0  0  0  0
   -1.8915   -0.2969    0.0798 H   0  0  0  0  0  0  0  0  0  0  0  0
    0.2158   -0.0759    0.4510 C   0  0  1  0  0  0  0  0  0  0  0  0
    0.7171   -0.2636    1.4070 H   0  0  0  0  0  0  0  0  0  0  0  0
    1.1158   -0.6195   -0.6735 C   0  0  0  0  0  0  0  0  0  0  0  0
    2.1095   -0.1683   -0.5840 H   0  0  0  0  0  0  0  0  0  0  0  0
    1.2385   -1.7015   -0.5629 H   0  0  0  0  0  0  0  0  0  0  0  0
    0.5841   -0.3287   -1.9772 O   0  0  0  0  0  0  0  0  0  0  0  0
    1.1403   -0.7417   -2.6629 H   0  0  0  0  0  0  0  0  0  0  0  0
    0.0556    1.4494    0.3227 C   0  0  0  0  0  0  0  0  0  0  0  0
    0.4032    2.1858    1.2360 O   0  0  0  0  0  0  0  0  0  0  0  0
   -0.5717    1.9897   -0.7841 N   0  0  0  0  0  0  0  0  0  0  0  0
   -0.6157    1.3628   -1.5881 H   0  0  0  0  0  0  0  0  0  0  0  0
   -0.6772    3.4253   -1.0103 C   0  0  0  0  0  0  0  0  0  0  0  0
    0.3179    3.8736   -1.0989 H   0  0  0  0  0  0  0  0  0  0  0  0
   -1.2316    3.6225   -1.9329 H   0  0  0  0  0  0  0  0  0  0  0  0
   -1.2076    3.9062   -0.1816 H   0  0  0  0  0  0  0  0  0  0  0  0
  1  2  1  0  0  0  0
  2  3  1  0  0  0  0
  2  4  1  0  0  0  0
  2  5  1  0  0  0  0
  5  6  2  0  0  0  0
  5  7  1  0  0  0  0
  7  8  1  0  0  0  0
  7  9  1  0  0  0  0
  9 10  1  0  0  0  0
  9 11  1  0  0  0  0
  9 16  1  0  0  0  0
 11 12  1  0  0  0  0
 11 13  1  0  0  0  0
 11 14  1  0  0  0  0
 14 15  1  0  0  0  0
 16 17  2  0  0  0  0
 16 18  1  0  0  0  0
 18 19  1  0  0  0  0
 18 20  1  0  0  0  0
 20 21  1  0  0  0  0
 20 22  1  0  0  0  0
 20 23  1  0  0  0  0
M  END
$$$$

  -OEChem-01062216093D

 23 22  0     1  0  0  0  0  0999 V2000
   -2.5699   -3.7960    1.0873 H   0  0  0  0  0  0  0  0  0  0  0  0
   -2.6228   -2.7533    0.7616 C   0  0  0  0  0  0  0  0  0  0  0  0
   -3.3355   -2.2222    1.3970 H   0  0  0  0  0  0  0  0  0  0  0  0
   -2.9742   -2.7257   -0.2725 H   0  0  0  0  0  0  0  0  0  0  0  0
   -1.2546   -2.1054    0.8623 C   0  0  0  0  0  0  0  0  0  0  0  0
   -0.3079   -2.7442    1.2913 O   0  0  0  0  0  0  0  0  0  0  0  0
   -1.0862   -0.7949    0.4668 N   0  0  0  0  0  0  0  0  0  0  0  0
   -1.9015   -0.3093    0.1058 H   0  0  0  0  0  0  0  0  0  0  0  0
    0.2079   -0.0827    0.4734 C   0  0  1  0  0  0  0  0  0  0  0  0
    0.7127   -0.2764    1.4262 H   0  0  0  0  0  0  0  0  0  0  0  0
    1.0989   -0.6004   -0.6669 C   0  0  0  0  0  0  0  0  0  0  0  0
    2.0925   -0.1483   -0.5790 H   0  0  0  0  0  0  0  0  0  0  0  0
    1.2241   -1.6846   -0.5836 H   0  0  0  0  0  0  0  0  0  0  0  0
    0.5432   -0.2752   -1.9521 O   0  0  0  0  0  0  0  0  0  0  0  0
    1.1058   -0.6381   -2.6601 H   0  0  0  0  0  0  0  0  0  0  0  0
    0.0525    1.4418    0.3409 C   0  0  0  0  0  0  0  0  0  0  0  0
    0.6261    2.1914    1.1198 O   0  0  0  0  0  0  0  0  0  0  0  0
   -0.8172    1.9648   -0.5993 N   0  0  0  0  0  0  0  0  0  0  0  0
   -1.0112    1.3356   -1.3766 H   0  0  0  0  0  0  0  0  0  0  0  0
   -0.9462    3.3982   -0.8291 C   0  0  0  0  0  0  0  0  0  0  0  0
    0.0025    3.8172   -1.1804 H   0  0  0  0  0  0  0  0  0  0  0  0
   -1.7137    3.5908   -1.5847 H   0  0  0  0  0  0  0  0  0  0  0  0
   -1.2373    3.9111    0.0937 H   0  0  0  0  0  0  0  0  0  0  0  0
  1  2  1  0  0  0  0
  2  3  1  0  0  0  0
  2  4  1  0  0  0  0
  2  5  1  0  0  0  0
  5  6  2  0  0  0  0
  5  7  1  0  0  0  0
  7  8  1  0  0  0  0
  7  9  1  0  0  0  0
  9 10  1  0  0  0  0
  9 11  1  0  0  0  0
  9 16  1  0  0  0  0
 11 12  1  0  0  0  0
 11 13  1  0  0  0  0
 11 14  1  0  0  0  0
 14 15  1  0  0  0  0
 16 17  2  0  0  0  0
 16 18  1  0  0  0  0
 18 19  1  0  0  0  0
 18 20  1  0  0  0  0
 20 21  1  0  0  0  0
 20 22  1  0  0  0  0
 20 23  1  0  0  0  0
M  END
$$$$

  -OEChem-01062216093D

 23 22  0     1  0  0  0  0  0999 V2000
   -2.5522   -3.8280    1.0971 H   0  0  0  0  0  0  0  0  0  0  0  0
   -2.6167   -2.7837    0.7783 C   0  0  0  0  0  0  0  0  0  0  0  0
   -3.3180   -2.2591    1.4315 H   0  0  0  0  0  0  0  0  0  0  0  0
   -2.9895   -2.7521   -0.2482 H   0  0  0  0  0  0  0  0  0  0  0  0
   -1.2499   -2.1301    0.8547 C   0  0  0  0  0  0  0  0  0  0  0  0
   -0.2963   -2.7617    1.2786 O   0  0  0  0  0  0  0  0  0  0  0  0
   -1.0939   -0.8185    0.4570 N   0  0  0  0  0  0  0  0  0  0  0  0
   -1.9208   -0.3316    0.1276 H   0  0  0  0  0  0  0  0  0  0  0  0
    0.1934   -0.0915    0.4809 C   0  0  1  0  0  0  0  0  0  0  0  0
    0.6938   -0.2865    1.4357 H   0  0  0  0  0  0  0  0  0  0  0  0
    1.0899   -0.5908   -0.6615 C   0  0  0  0  0  0  0  0  0  0  0  0
    2.0802   -0.1323   -0.5696 H   0  0  0  0  0  0  0  0  0  0  0  0
    1.2230   -1.6749   -0.5924 H   0  0  0  0  0  0  0  0  0  0  0  0
    0.5252   -0.2510   -1.9383 O   0  0  0  0  0  0  0  0  0  0  0  0
    1.0986   -0.5774   -2.6549 H   0  0  0  0  0  0  0  0  0  0  0  0
    0.0478    1.4340    0.3431 C   0  0  0  0  0  0  0  0  0  0  0  0
    0.8022    2.1775    0.9564 O   0  0  0  0  0  0  0  0  0  0  0  0
   -1.0060    1.9726   -0.3755 N   0  0  0  0  0  0  0  0  0  0  0  0
   -1.3788    1.3575   -1.0936 H   0  0  0  0  0  0  0  0  0  0  0  0
   -1.1539    3.4099   -0.5694 C   0  0  0  0  0  0  0  0  0  0  0  0
   -0.2947    3.8140   -1.1149 H   0  0  0  0  0  0  0  0  0  0  0  0
   -2.0614    3.6223   -1.1427 H   0  0  0  0  0  0  0  0  0  0  0  0
   -1.2302    3.9215    0.3960 H   0  0  0  0  0  0  0  0  0  0  0  0
  1  2  1  0  0  0  0
  2  3  1  0  0  0  0
  2  4  1  0  0  0  0
  2  5  1  0  0  0  0
  5  6  2  0  0  0  0
  5  7  1  0  0  0  0
  7  8  1  0  0  0  0
  7  9  1  0  0  0  0
  9 10  1  0  0  0  0
  9 11  1  0  0  0  0
  9 16  1  0  0  0  0
 11 12  1  0  0  0  0
 11 13  1  0  0  0  0
 11 14  1  0  0  0  0
 14 15  1  0  0  0  0
 16 17  2  0  0  0  0
 16 18  1  0  0  0  0
 18 19  1  0  0  0  0
 18 20  1  0  0  0  0
 20 21  1  0  0  0  0
 20 22  1  0  0  0  0
 20 23  1  0  0  0  0
M  END
$$$$

  -OEChem-01062216093D

 23 22  0     1  0  0  0  0  0999 V2000
   -2.4206   -3.8973    1.0837 H   0  0  0  0  0  0  0  0  0  0  0  0
   -2.5078   -2.8869    0.6739 C   0  0  0  0  0  0  0  0  0  0  0  0
   -3.3793   -2.4014    1.1197 H   0  0  0  0  0  0  0  0  0  0  0  0
   -2.6495   -2.9572   -0.4071 H   0  0  0  0  0  0  0  0  0  0  0  0
   -1.2546   -2.0895    0.9829 C   0  0  0  0  0  0  0  0  0  0  0  0
   -0.3430   -2.6093    1.6046 O   0  0  0  0  0  0  0  0  0  0  0  0
   -1.1498   -0.7836    0.5477 N   0  0  0  0  0  0  0  0  0  0  0  0
   -1.8228   -0.5328   -0.1682 H   0  0  0  0  0  0  0  0  0  0  0  0
    0.1456   -0.0698    0.5072 C   0  0  1  0  0  0  0  0  0  0  0  0
    0.6774   -0.2510    1.4474 H   0  0  0  0  0  0  0  0  0  0  0  0
    0.9838   -0.6352   -0.6477 C   0  0  0  0  0  0  0  0  0  0  0  0
    1.9848   -0.1913   -0.6200 H   0  0  0  0  0  0  0  0  0  0  0  0
    1.1029   -1.7181   -0.5402 H   0  0  0  0  0  0  0  0  0  0  0  0
    0.3627   -0.3322   -1.9061 O   0  0  0  0  0  0  0  0  0  0  0  0
    0.9418   -0.6045   -2.6403 H   0  0  0  0  0  0  0  0  0  0  0  0
    0.0534    1.4615    0.3514 C   0  0  0  0  0  0  0  0  0  0  0  0
    1.0361    2.1531    0.5872 O   0  0  0  0  0  0  0  0  0  0  0  0
   -1.1181    2.0851   -0.0453 N   0  0  0  0  0  0  0  0  0  0  0  0
   -1.9025    1.4931   -0.2894 H   0  0  0  0  0  0  0  0  0  0  0  0
   -1.2287    3.5245   -0.2476 C   0  0  0  0  0  0  0  0  0  0  0  0
   -0.5448    3.8532   -1.0372 H   0  0  0  0  0  0  0  0  0  0  0  0
   -2.2491    3.7888   -0.5410 H   0  0  0  0  0  0  0  0  0  0  0  0
   -0.9858    4.0612    0.6756 H   0  0  0  0  0  0  0  0  0  0  0  0
  1  2  1  0  0  0  0
  2  3  1  0  0  0  0
  2  4  1  0  0  0  0
  2  5  1  0  0  0  0
  5  6  2  0  0  0  0
  5  7  1  0  0  0  0
  7  8  1  0  0  0  0
  7  9  1  0  0  0  0
  9 10  1  0  0  0  0
  9 11  1  0  0  0  0
  9 16  1  0  0  0  0
 11 12  1  0  0  0  0
 11 13  1  0  0  0  0
 11 14  1  0  0  0  0
 14 15  1  0  0  0  0
 16 17  2  0  0  0  0
 16 18  1  0  0  0  0
 18 19  1  0  0  0  0
 18 20  1  0  0  0  0
 20 21  1  0  0  0  0
 20 22  1  0  0  0  0
 20 23  1  0  0  0  0
M  END
$$$$

  -OEChem-01062216093D

 23 22  0     1  0  0  0  0  0999 V2000
   -2.4172   -3.8803    1.0605 H   0  0  0  0  0  0  0  0  0  0  0  0
   -2.4963   -2.8742    0.6391 C   0  0  0  0  0  0  0  0  0  0  0  0
   -3.3853   -2.3901    1.0503 H   0  0  0  0  0  0  0  0  0  0  0  0
   -2.6008   -2.9550   -0.4455 H   0  0  0  0  0  0  0  0  0  0  0  0
   -1.2590   -2.0664    0.9829 C   0  0  0  0  0  0  0  0  0  0  0  0
   -0.3684   -2.5710    1.6462 O   0  0  0  0  0  0  0  0  0  0  0  0
   -1.1449   -0.7651    0.5365 N   0  0  0  0  0  0  0  0  0  0  0  0
   -1.7896   -0.5330   -0.2137 H   0  0  0  0  0  0  0  0  0  0  0  0
    0.1583   -0.0665    0.4893 C   0  0  1  0  0  0  0  0  0  0  0  0
    0.6894   -0.2386    1.4314 H   0  0  0  0  0  0  0  0  0  0  0  0
    0.9895   -0.6592   -0.6586 C   0  0  0  0  0  0  0  0  0  0  0  0
    1.9962   -0.2284   -0.6378 H   0  0  0  0  0  0  0  0  0  0  0  0
    1.0950   -1.7419   -0.5366 H   0  0  0  0  0  0  0  0  0  0  0  0
    0.3715   -0.3656   -1.9203 O   0  0  0  0  0  0  0  0  0  0  0  0
    0.9625   -0.6190   -2.6515 H   0  0  0  0  0  0  0  0  0  0  0  0
    0.0615    1.4633    0.3216 C   0  0  0  0  0  0  0  0  0  0  0  0
    1.0772    2.1469    0.2897 O   0  0  0  0  0  0  0  0  0  0  0  0
   -1.1690    2.0914    0.2278 N   0  0  0  0  0  0  0  0  0  0  0  0
   -1.9887    1.5200    0.4005 H   0  0  0  0  0  0  0  0  0  0  0  0
   -1.3222    3.5378    0.1328 C   0  0  0  0  0  0  0  0  0  0  0  0
   -0.7941    3.9217   -0.7466 H   0  0  0  0  0  0  0  0  0  0  0  0
   -2.3802    3.8007    0.0402 H   0  0  0  0  0  0  0  0  0  0  0  0
   -0.9194    4.0257    1.0266 H   0  0  0  0  0  0  0  0  0  0  0  0
  1  2  1  0  0  0  0
  2  3  1  0  0  0  0
  2  4  1  0  0  0  0
  2  5  1  0  0  0  0
  5  6  2  0  0  0  0
  5  7  1  0  0  0  0
  7  8  1  0  0  0  0
  7  9  1  0  0  0  0
  9 10  1  0  0  0  0
  9 11  1  0  0  0  0
  9 16  1  0  0  0  0
 11 12  1  0  0  0  0
 11 13  1  0  0  0  0
 11 14  1  0  0  0  0
 14 15  1  0  0  0  0
 16 17  2  0  0  0  0
 16 18  1  0  0  0  0
 18 19  1  0  0  0  0
 18 20  1  0  0  0  0
 20 21  1  0  0  0  0
 20 22  1  0  0  0  0
 20 23  1  0  0  0  0
M  END
$$$$

  -OEChem-01062216093D

 23 22  0     1  0  0  0  0  0999 V2000
   -2.4304   -3.8638    1.0548 H   0  0  0  0  0  0  0  0  0  0  0  0
   -2.4976   -2.8617    0.6215 C   0  0  0  0  0  0  0  0  0  0  0  0
   -3.3892   -2.3676    1.0145 H   0  0  0  0  0  0  0  0  0  0  0  0
   -2.5870   -2.9533   -0.4637 H   0  0  0  0  0  0  0  0  0  0  0  0
   -1.2608   -2.0573    0.9735 C   0  0  0  0  0  0  0  0  0  0  0  0
   -0.3763   -2.5624    1.6448 O   0  0  0  0  0  0  0  0  0  0  0  0
   -1.1401   -0.7563    0.5288 N   0  0  0  0  0  0  0  0  0  0  0  0
   -1.7883   -0.5113   -0.2150 H   0  0  0  0  0  0  0  0  0  0  0  0
    0.1652   -0.0632    0.4808 C   0  0  1  0  0  0  0  0  0  0  0  0
    0.6961   -0.2336    1.4232 H   0  0  0  0  0  0  0  0  0  0  0  0
    0.9923   -0.6696   -0.6641 C   0  0  0  0  0  0  0  0  0  0  0  0
    2.0023   -0.2464   -0.6465 H   0  0  0  0  0  0  0  0  0  0  0  0
    1.0908   -1.7522   -0.5354 H   0  0  0  0  0  0  0  0  0  0  0  0
    0.3747   -0.3808   -1.9271 O   0  0  0  0  0  0  0  0  0  0  0  0
    0.9746   -0.6152   -2.6571 H   0  0  0  0  0  0  0  0  0  0  0  0
    0.0582    1.4669    0.3144 C   0  0  0  0  0  0  0  0  0  0  0  0
    1.0461    2.1460    0.0619 O   0  0  0  0  0  0  0  0  0  0  0  0
   -1.1506    2.1052    0.5334 N   0  0  0  0  0  0  0  0  0  0  0  0
   -1.9065    1.5337    0.8974 H   0  0  0  0  0  0  0  0  0  0  0  0
   -1.3060    3.5545    0.5103 C   0  0  0  0  0  0  0  0  0  0  0  0
   -1.0019    3.9563   -0.4621 H   0  0  0  0  0  0  0  0  0  0  0  0
   -2.3518    3.8261    0.6826 H   0  0  0  0  0  0  0  0  0  0  0  0
   -0.6934    4.0184    1.2905 H   0  0  0  0  0  0  0  0  0  0  0  0
  1  2  1  0  0  0  0
  2  3  1  0  0  0  0
  2  4  1  0  0  0  0
  2  5  1  0  0  0  0
  5  6  2  0  0  0  0
  5  7  1  0  0  0  0
  7  8  1  0  0  0  0
  7  9  1  0  0  0  0
  9 10  1  0  0  0  0
  9 11  1  0  0  0  0
  9 16  1  0  0  0  0
 11 12  1  0  0  0  0
 11 13  1  0  0  0  0
 11 14  1  0  0  0  0
 14 15  1  0  0  0  0
 16 17  2  0  0  0  0
 16 18  1  0  0  0  0
 18 19  1  0  0  0  0
 18 20  1  0  0  0  0
 20 21  1  0  0  0  0
 20 22  1  0  0  0  0
 20 23  1  0  0  0  0
M  END
$$$$

  -OEChem-01062216093D

 23 22  0     1  0  0  0  0  0999 V2000
   -2.4390   -3.8523    1.0343 H   0  0  0  0  0  0  0  0  0  0  0  0
   -2.5091   -2.8436    0.6175 C   0  0  0  0  0  0  0  0  0  0  0  0
   -3.3913   -2.3515    1.0338 H   0  0  0  0  0  0  0  0  0  0  0  0
   -2.6180   -2.9183   -0.4673 H   0  0  0  0  0  0  0  0  0  0  0  0
   -1.2624   -2.0504    0.9603 C   0  0  0  0  0  0  0  0  0  0  0  0
   -0.3798   -2.5608    1.6300 O   0  0  0  0  0  0  0  0  0  0  0  0
   -1.1341   -0.7488    0.5200 N   0  0  0  0  0  0  0  0  0  0  0  0
   -1.7926   -0.4872   -0.2096 H   0  0  0  0  0  0  0  0  0  0  0  0
    0.1722   -0.0584    0.4712 C   0  0  1  0  0  0  0  0  0  0  0  0
    0.7027   -0.2268    1.4138 H   0  0  0  0  0  0  0  0  0  0  0  0
    1.0002   -0.6751   -0.6690 C   0  0  0  0  0  0  0  0  0  0  0  0
    2.0103   -0.2524   -0.6520 H   0  0  0  0  0  0  0  0  0  0  0  0
    1.0982   -1.7567   -0.5329 H   0  0  0  0  0  0  0  0  0  0  0  0
    0.3875   -0.3949   -1.9362 O   0  0  0  0  0  0  0  0  0  0  0  0
    1.0039   -0.5992   -2.6613 H   0  0  0  0  0  0  0  0  0  0  0  0
    0.0522    1.4717    0.3090 C   0  0  0  0  0  0  0  0  0  0  0  0
    0.9648    2.1479   -0.1502 O   0  0  0  0  0  0  0  0  0  0  0  0
   -1.0552    2.1198    0.8281 N   0  0  0  0  0  0  0  0  0  0  0  0
   -1.7276    1.5448    1.3273 H   0  0  0  0  0  0  0  0  0  0  0  0
   -1.1954    3.5704    0.8627 C   0  0  0  0  0  0  0  0  0  0  0  0
   -1.1272    3.9861   -0.1482 H   0  0  0  0  0  0  0  0  0  0  0  0
   -2.1667    3.8468    1.2837 H   0  0  0  0  0  0  0  0  0  0  0  0
   -0.4093    4.0166    1.4808 H   0  0  0  0  0  0  0  0  0  0  0  0
  1  2  1  0  0  0  0
  2  3  1  0  0  0  0
  2  4  1  0  0  0  0
  2  5  1  0  0  0  0
  5  6  2  0  0  0  0
  5  7  1  0  0  0  0
  7  8  1  0  0  0  0
  7  9  1  0  0  0  0
  9 10  1  0  0  0  0
  9 11  1  0  0  0  0
  9 16  1  0  0  0  0
 11 12  1  0  0  0  0
 11 13  1  0  0  0  0
 11 14  1  0  0  0  0
 14 15  1  0  0  0  0
 16 17  2  0  0  0  0
 16 18  1  0  0  0  0
 18 19  1  0  0  0  0
 18 20  1  0  0  0  0
 20 21  1  0  0  0  0
 20 22  1  0  0  0  0
 20 23  1  0  0  0  0
M  END
$$$$

  -OEChem-01062216093D

 23 22  0     1  0  0  0  0  0999 V2000
   -2.4438   -3.8457    1.0221 H   0  0  0  0  0  0  0  0  0  0  0  0
   -2.5110   -2.8363    0.6064 C   0  0  0  0  0  0  0  0  0  0  0  0
   -3.3947   -2.3440    1.0192 H   0  0  0  0  0  0  0  0  0  0  0  0
   -2.6152   -2.9095   -0.4789 H   0  0  0  0  0  0  0  0  0  0  0  0
   -1.2649   -2.0444    0.9547 C   0  0  0  0  0  0  0  0  0  0  0  0
   -0.3838   -2.5555    1.6263 O   0  0  0  0  0  0  0  0  0  0  0  0
   -1.1361   -0.7412    0.5202 N   0  0  0  0  0  0  0  0  0  0  0  0
   -1.8030   -0.4702   -0.1984 H   0  0  0  0  0  0  0  0  0  0  0  0
    0.1692   -0.0510    0.4669 C   0  0  1  0  0  0  0  0  0  0  0  0
    0.7013   -0.2189    1.4087 H   0  0  0  0  0  0  0  0  0  0  0  0
    0.9965   -0.6781   -0.6697 C   0  0  0  0  0  0  0  0  0  0  0  0
    2.0050   -0.2512   -0.6564 H   0  0  0  0  0  0  0  0  0  0  0  0
    1.0987   -1.7580   -0.5239 H   0  0  0  0  0  0  0  0  0  0  0  0
    0.3854   -0.4107   -1.9405 O   0  0  0  0  0  0  0  0  0  0  0  0
    1.0145   -0.5850   -2.6622 H   0  0  0  0  0  0  0  0  0  0  0  0
    0.0419    1.4800    0.3123 C   0  0  0  0  0  0  0  0  0  0  0  0
    0.8321    2.1469   -0.3449 O   0  0  0  0  0  0  0  0  0  0  0  0
   -0.8821    2.1460    1.0979 N   0  0  0  0  0  0  0  0  0  0  0  0
   -1.4550    1.5769    1.7147 H   0  0  0  0  0  0  0  0  0  0  0  0
   -0.9883    3.5985    1.1645 C   0  0  0  0  0  0  0  0  0  0  0  0
   -1.1806    4.0148    0.1700 H   0  0  0  0  0  0  0  0  0  0  0  0
   -1.8120    3.8873    1.8243 H   0  0  0  0  0  0  0  0  0  0  0  0
   -0.0622    4.0330    1.5553 H   0  0  0  0  0  0  0  0  0  0  0  0
  1  2  1  0  0  0  0
  2  3  1  0  0  0  0
  2  4  1  0  0  0  0
  2  5  1  0  0  0  0
  5  6  2  0  0  0  0
  5  7  1  0  0  0  0
  7  8  1  0  0  0  0
  7  9  1  0  0  0  0
  9 10  1  0  0  0  0
  9 11  1  0  0  0  0
  9 16  1  0  0  0  0
 11 12  1  0  0  0  0
 11 13  1  0  0  0  0
 11 14  1  0  0  0  0
 14 15  1  0  0  0  0
 16 17  2  0  0  0  0
 16 18  1  0  0  0  0
 18 19  1  0  0  0  0
 18 20  1  0  0  0  0
 20 21  1  0  0  0  0
 20 22  1  0  0  0  0
 20 23  1  0  0  0  0
M  END
$$$$

  -OEChem-01062216093D

 23 22  0     1  0  0  0  0  0999 V2000
   -2.4459   -3.8412    0.9889 H   0  0  0  0  0  0  0  0  0  0  0  0
   -2.5180   -2.8230    0.5959 C   0  0  0  0  0  0  0  0  0  0  0  0
   -3.3961   -2.3389    1.0300 H   0  0  0  0  0  0  0  0  0  0  0  0
   -2.6361   -2.8730   -0.4894 H   0  0  0  0  0  0  0  0  0  0  0  0
   -1.2675   -2.0389    0.9452 C   0  0  0  0  0  0  0  0  0  0  0  0
   -0.3860   -2.5574    1.6111 O   0  0  0  0  0  0  0  0  0  0  0  0
   -1.1367   -0.7319    0.5237 N   0  0  0  0  0  0  0  0  0  0  0  0
   -1.8114   -0.4473   -0.1822 H   0  0  0  0  0  0  0  0  0  0  0  0
    0.1683   -0.0445    0.4662 C   0  0  1  0  0  0  0  0  0  0  0  0
    0.7038   -0.2198    1.4048 H   0  0  0  0  0  0  0  0  0  0  0  0
    0.9945   -0.6808   -0.6680 C   0  0  0  0  0  0  0  0  0  0  0  0
    2.0012   -0.2498   -0.6556 H   0  0  0  0  0  0  0  0  0  0  0  0
    1.0999   -1.7592   -0.5130 H   0  0  0  0  0  0  0  0  0  0  0  0
    0.3922   -0.4279   -1.9456 O   0  0  0  0  0  0  0  0  0  0  0  0
    1.0333   -0.5830   -2.6608 H   0  0  0  0  0  0  0  0  0  0  0  0
    0.0390    1.4890    0.3289 C   0  0  0  0  0  0  0  0  0  0  0  0
    0.6408    2.1443   -0.5130 O   0  0  0  0  0  0  0  0  0  0  0  0
   -0.6303    2.1744    1.3272 N   0  0  0  0  0  0  0  0  0  0  0  0
   -1.0715    1.6172    2.0535 H   0  0  0  0  0  0  0  0  0  0  0  0
   -0.7182    3.6283    1.3933 C   0  0  0  0  0  0  0  0  0  0  0  0
   -1.1763    4.0267    0.4819 H   0  0  0  0  0  0  0  0  0  0  0  0
   -1.3305    3.9317    2.2480 H   0  0  0  0  0  0  0  0  0  0  0  0
    0.2782    4.0680    1.5081 H   0  0  0  0  0  0  0  0  0  0  0  0
  1  2  1  0  0  0  0
  2  3  1  0  0  0  0
  2  4  1  0  0  0  0
  2  5  1  0  0  0  0
  5  6  2  0  0  0  0
  5  7  1  0  0  0  0
  7  8  1  0  0  0  0
  7  9  1  0  0  0  0
  9 10  1  0  0  0  0
  9 11  1  0  0  0  0
  9 16  1  0  0  0  0
 11 12  1  0  0  0  0
 11 13  1  0  0  0  0
 11 14  1  0  0  0  0
 14 15  1  0  0  0  0
 16 17  2  0  0  0  0
 16 18  1  0  0  0  0
 18 19  1  0  0  0  0
 18 20  1  0  0  0  0
 20 21  1  0  0  0  0
 20 22  1  0  0  0  0
 20 23  1  0  0  0  0
M  END
$$$$

  -OEChem-01062216093D

 23 22  0     1  0  0  0  0  0999 V2000
   -2.4642   -3.8279    0.9797 H   0  0  0  0  0  0  0  0  0  0  0  0
   -2.5284   -2.8108    0.5830 C   0  0  0  0  0  0  0  0  0  0  0  0
   -3.4041   -2.3191    1.0132 H   0  0  0  0  0  0  0  0  0  0  0  0
   -2.6438   -2.8635   -0.5024 H   0  0  0  0  0  0  0  0  0  0  0  0
   -1.2732   -2.0341    0.9325 C   0  0  0  0  0  0  0  0  0  0  0  0
   -0.3893   -2.5623    1.5882 O   0  0  0  0  0  0  0  0  0  0  0  0
   -1.1414   -0.7221    0.5275 N   0  0  0  0  0  0  0  0  0  0  0  0
   -1.8226   -0.4242   -0.1669 H   0  0  0  0  0  0  0  0  0  0  0  0
    0.1637   -0.0376    0.4657 C   0  0  1  0  0  0  0  0  0  0  0  0
    0.6993   -0.2236    1.4021 H   0  0  0  0  0  0  0  0  0  0  0  0
    0.9975   -0.6769   -0.6632 C   0  0  0  0  0  0  0  0  0  0  0  0
    2.0013   -0.2396   -0.6448 H   0  0  0  0  0  0  0  0  0  0  0  0
    1.1080   -1.7535   -0.5000 H   0  0  0  0  0  0  0  0  0  0  0  0
    0.4121   -0.4399   -1.9507 O   0  0  0  0  0  0  0  0  0  0  0  0
    1.0572   -0.6103   -2.6582 H   0  0  0  0  0  0  0  0  0  0  0  0
    0.0388    1.4992    0.3503 C   0  0  0  0  0  0  0  0  0  0  0  0
    0.3613    2.1398   -0.6418 O   0  0  0  0  0  0  0  0  0  0  0  0
   -0.3225    2.2052    1.4843 N   0  0  0  0  0  0  0  0  0  0  0  0
   -0.5785    1.6640    2.3055 H   0  0  0  0  0  0  0  0  0  0  0  0
   -0.3966    3.6604    1.5425 C   0  0  0  0  0  0  0  0  0  0  0  0
   -1.1288    4.0368    0.8203 H   0  0  0  0  0  0  0  0  0  0  0  0
   -0.6997    3.9840    2.5429 H   0  0  0  0  0  0  0  0  0  0  0  0
    0.5796    4.1030    1.3180 H   0  0  0  0  0  0  0  0  0  0  0  0
  1  2  1  0  0  0  0
  2  3  1  0  0  0  0
  2  4  1  0  0  0  0
  2  5  1  0  0  0  0
  5  6  2  0  0  0  0
  5  7  1  0  0  0  0
  7  8  1  0  0  0  0
  7  9  1  0  0  0  0
  9 10  1  0  0  0  0
  9 11  1  0  0  0  0
  9 16  1  0  0  0  0
 11 12  1  0  0  0  0
 11 13  1  0  0  0  0
 11 14  1  0  0  0  0
 14 15  1  0  0  0  0
 16 17  2  0  0  0  0
 16 18  1  0  0  0  0
 18 19  1  0  0  0  0
 18 20  1  0  0  0  0
 20 21  1  0  0  0  0
 20 22  1  0  0  0  0
 20 23  1  0  0  0  0
M  END
$$$$

  -OEChem-01062216093D

 23 22  0     1  0  0  0  0  0999 V2000
   -2.5104   -3.7848    0.9352 H   0  0  0  0  0  0  0  0  0  0  0  0
   -2.5644   -2.7518    0.5806 C   0  0  0  0  0  0  0  0  0  0  0  0
   -3.4128   -2.2577    1.0600 H   0  0  0  0  0  0  0  0  0  0  0  0
   -2.7185   -2.7591   -0.5012 H   0  0  0  0  0  0  0  0  0  0  0  0
   -1.2807   -2.0167    0.9150 C   0  0  0  0  0  0  0  0  0  0  0  0
   -0.3959   -2.5808    1.5396 O   0  0  0  0  0  0  0  0  0  0  0  0
   -1.1212   -0.7025    0.5296 N   0  0  0  0  0  0  0  0  0  0  0  0
   -1.8142   -0.3605   -0.1327 H   0  0  0  0  0  0  0  0  0  0  0  0
    0.1948   -0.0438    0.4629 C   0  0  1  0  0  0  0  0  0  0  0  0
    0.7243   -0.2507    1.3978 H   0  0  0  0  0  0  0  0  0  0  0  0
    1.0378   -0.6799   -0.6616 C   0  0  0  0  0  0  0  0  0  0  0  0
    2.0449   -0.2521   -0.6252 H   0  0  0  0  0  0  0  0  0  0  0  0
    1.1356   -1.7581   -0.5002 H   0  0  0  0  0  0  0  0  0  0  0  0
    0.4821   -0.4399   -1.9600 O   0  0  0  0  0  0  0  0  0  0  0  0
    1.1067   -0.6978   -2.6589 H   0  0  0  0  0  0  0  0  0  0  0  0
    0.0886    1.4954    0.3725 C   0  0  0  0  0  0  0  0  0  0  0  0
   -0.0334    2.1059   -0.6809 O   0  0  0  0  0  0  0  0  0  0  0  0
    0.0687    2.2242    1.5492 N   0  0  0  0  0  0  0  0  0  0  0  0
    0.0800    1.7015    2.4204 H   0  0  0  0  0  0  0  0  0  0  0  0
   -0.0992    3.6720    1.5975 C   0  0  0  0  0  0  0  0  0  0  0  0
   -1.0660    3.9606    1.1718 H   0  0  0  0  0  0  0  0  0  0  0  0
   -0.0583    4.0228    2.6331 H   0  0  0  0  0  0  0  0  0  0  0  0
    0.6970    4.1693    1.0335 H   0  0  0  0  0  0  0  0  0  0  0  0
  1  2  1  0  0  0  0
  2  3  1  0  0  0  0
  2  4  1  0  0  0  0
  2  5  1  0  0  0  0
  5  6  2  0  0  0  0
  5  7  1  0  0  0  0
  7  8  1  0  0  0  0
  7  9  1  0  0  0  0
  9 10  1  0  0  0  0
  9 11  1  0  0  0  0
  9 16  1  0  0  0  0
 11 12  1  0  0  0  0
 11 13  1  0  0  0  0
 11 14  1  0  0  0  0
 14 15  1  0  0  0  0
 16 17  2  0  0  0  0
 16 18  1  0  0  0  0
 18 19  1  0  0  0  0
 18 20  1  0  0  0  0
 20 21  1  0  0  0  0
 20 22  1  0  0  0  0
 20 23  1  0  0  0  0
M  END
$$$$

  -OEChem-01062216093D

 23 22  0     1  0  0  0  0  0999 V2000
   -2.5895   -3.7202    0.9708 H   0  0  0  0  0  0  0  0  0  0  0  0
   -2.6081   -2.6904    0.6032 C   0  0  0  0  0  0  0  0  0  0  0  0
   -3.4213   -2.1541    1.0980 H   0  0  0  0  0  0  0  0  0  0  0  0
   -2.7914   -2.7042   -0.4740 H   0  0  0  0  0  0  0  0  0  0  0  0
   -1.2853   -2.0073    0.8943 C   0  0  0  0  0  0  0  0  0  0  0  0
   -0.4000   -2.6095    1.4819 O   0  0  0  0  0  0  0  0  0  0  0  0
   -1.0903   -0.6975    0.5125 N   0  0  0  0  0  0  0  0  0  0  0  0
   -1.7915   -0.3084   -0.1151 H   0  0  0  0  0  0  0  0  0  0  0  0
    0.2352   -0.0604    0.4554 C   0  0  1  0  0  0  0  0  0  0  0  0
    0.7500   -0.2795    1.3958 H   0  0  0  0  0  0  0  0  0  0  0  0
    1.0930   -0.6766   -0.6664 C   0  0  0  0  0  0  0  0  0  0  0  0
    2.1035   -0.2596   -0.6058 H   0  0  0  0  0  0  0  0  0  0  0  0
    1.1766   -1.7587   -0.5234 H   0  0  0  0  0  0  0  0  0  0  0  0
    0.5597   -0.4084   -1.9677 O   0  0  0  0  0  0  0  0  0  0  0  0
    1.1514   -0.7416   -2.6633 H   0  0  0  0  0  0  0  0  0  0  0  0
    0.1378    1.4772    0.3647 C   0  0  0  0  0  0  0  0  0  0  0  0
   -0.3874    2.0395   -0.5879 O   0  0  0  0  0  0  0  0  0  0  0  0
    0.4274    2.2380    1.4851 N   0  0  0  0  0  0  0  0  0  0  0  0
    0.7230    1.7443    2.3221 H   0  0  0  0  0  0  0  0  0  0  0  0
    0.1904    3.6749    1.5643 C   0  0  0  0  0  0  0  0  0  0  0  0
   -0.8808    3.8912    1.4932 H   0  0  0  0  0  0  0  0  0  0  0  0
    0.5612    4.0676    2.5160 H   0  0  0  0  0  0  0  0  0  0  0  0
    0.7094    4.1951    0.7521 H   0  0  0  0  0  0  0  0  0  0  0  0
  1  2  1  0  0  0  0
  2  3  1  0  0  0  0
  2  4  1  0  0  0  0
  2  5  1  0  0  0  0
  5  6  2  0  0  0  0
  5  7  1  0  0  0  0
  7  8  1  0  0  0  0
  7  9  1  0  0  0  0
  9 10  1  0  0  0  0
  9 11  1  0  0  0  0
  9 16  1  0  0  0  0
 11 12  1  0  0  0  0
 11 13  1  0  0  0  0
 11 14  1  0  0  0  0
 14 15  1  0  0  0  0
 16 17  2  0  0  0  0
 16 18  1  0  0  0  0
 18 19  1  0  0  0  0
 18 20  1  0  0  0  0
 20 21  1  0  0  0  0
 20 22  1  0  0  0  0
 20 23  1  0  0  0  0
M  END
$$$$

  -OEChem-01062216093D

 23 22  0     1  0  0  0  0  0999 V2000
   -2.6161   -3.7034    0.9788 H   0  0  0  0  0  0  0  0  0  0  0  0
   -2.6294   -2.6684    0.6262 C   0  0  0  0  0  0  0  0  0  0  0  0
   -3.4178   -2.1259    1.1535 H   0  0  0  0  0  0  0  0  0  0  0  0
   -2.8467   -2.6637   -0.4447 H   0  0  0  0  0  0  0  0  0  0  0  0
   -1.2869   -2.0115    0.8844 C   0  0  0  0  0  0  0  0  0  0  0  0
   -0.3955   -2.6344    1.4409 O   0  0  0  0  0  0  0  0  0  0  0  0
   -1.0749   -0.7060    0.4989 N   0  0  0  0  0  0  0  0  0  0  0  0
   -1.7898   -0.2805   -0.0889 H   0  0  0  0  0  0  0  0  0  0  0  0
    0.2516   -0.0715    0.4540 C   0  0  1  0  0  0  0  0  0  0  0  0
    0.7560   -0.2905    1.3999 H   0  0  0  0  0  0  0  0  0  0  0  0
    1.1191   -0.6677   -0.6681 C   0  0  0  0  0  0  0  0  0  0  0  0
    2.1300   -0.2543   -0.5941 H   0  0  0  0  0  0  0  0  0  0  0  0
    1.1977   -1.7522   -0.5416 H   0  0  0  0  0  0  0  0  0  0  0  0
    0.5908   -0.3764   -1.9660 O   0  0  0  0  0  0  0  0  0  0  0  0
    1.1541   -0.7514   -2.6641 H   0  0  0  0  0  0  0  0  0  0  0  0
    0.1504    1.4636    0.3520 C   0  0  0  0  0  0  0  0  0  0  0  0
   -0.6161    1.9951   -0.4434 O   0  0  0  0  0  0  0  0  0  0  0  0
    0.7118    2.2527    1.3417 N   0  0  0  0  0  0  0  0  0  0  0  0
    1.2299    1.7842    2.0790 H   0  0  0  0  0  0  0  0  0  0  0  0
    0.4991    3.6922    1.4362 C   0  0  0  0  0  0  0  0  0  0  0  0
   -0.5582    3.9120    1.6174 H   0  0  0  0  0  0  0  0  0  0  0  0
    1.0861    4.1081    2.2606 H   0  0  0  0  0  0  0  0  0  0  0  0
    0.8083    4.1874    0.5096 H   0  0  0  0  0  0  0  0  0  0  0  0
  1  2  1  0  0  0  0
  2  3  1  0  0  0  0
  2  4  1  0  0  0  0
  2  5  1  0  0  0  0
  5  6  2  0  0  0  0
  5  7  1  0  0  0  0
  7  8  1  0  0  0  0
  7  9  1  0  0  0  0
  9 10  1  0  0  0  0
  9 11  1  0  0  0  0
  9 16  1  0  0  0  0
 11 12  1  0  0  0  0
 11 13  1  0  0  0  0
 11 14  1  0  0  0  0
 14 15  1  0  0  0  0
 16 17  2  0  0  0  0
 16 18  1  0  0  0  0
 18 19  1  0  0  0  0
 18 20  1  0  0  0  0
 20 21  1  0  0  0  0
 20 22  1  0  0  0  0
 20 23  1  0  0  0  0
M  END
$$$$

  -OEChem-01062216093D

 23 22  0     1  0  0  0  0  0999 V2000
   -2.6411   -3.6946    1.0068 H   0  0  0  0  0  0  0  0  0  0  0  0
   -2.6456   -2.6605    0.6512 C   0  0  0  0  0  0  0  0  0  0  0  0
   -3.4081   -2.1021    1.1996 H   0  0  0  0  0  0  0  0  0  0  0  0
   -2.8938   -2.6547   -0.4129 H   0  0  0  0  0  0  0  0  0  0  0  0
   -1.2846   -2.0269    0.8684 C   0  0  0  0  0  0  0  0  0  0  0  0
   -0.3868   -2.6648    1.3972 O   0  0  0  0  0  0  0  0  0  0  0  0
   -1.0640   -0.7236    0.4816 N   0  0  0  0  0  0  0  0  0  0  0  0
   -1.7966   -0.2650   -0.0582 H   0  0  0  0  0  0  0  0  0  0  0  0
    0.2589   -0.0804    0.4535 C   0  0  1  0  0  0  0  0  0  0  0  0
    0.7548   -0.2962    1.4044 H   0  0  0  0  0  0  0  0  0  0  0  0
    1.1369   -0.6556   -0.6698 C   0  0  0  0  0  0  0  0  0  0  0  0
    2.1465   -0.2406   -0.5853 H   0  0  0  0  0  0  0  0  0  0  0  0
    1.2176   -1.7417   -0.5592 H   0  0  0  0  0  0  0  0  0  0  0  0
    0.6098   -0.3453   -1.9641 O   0  0  0  0  0  0  0  0  0  0  0  0
    1.1557   -0.7389   -2.6662 H   0  0  0  0  0  0  0  0  0  0  0  0
    0.1492    1.4528    0.3420 C   0  0  0  0  0  0  0  0  0  0  0  0
   -0.7743    1.9712   -0.2772 O   0  0  0  0  0  0  0  0  0  0  0  0
    0.9382    2.2597    1.1441 N   0  0  0  0  0  0  0  0  0  0  0  0
    1.6299    1.8069    1.7338 H   0  0  0  0  0  0  0  0  0  0  0  0
    0.7785    3.7065    1.2286 C   0  0  0  0  0  0  0  0  0  0  0  0
   -0.2077    3.9602    1.6315 H   0  0  0  0  0  0  0  0  0  0  0  0
    1.5416    4.1338    1.8862 H   0  0  0  0  0  0  0  0  0  0  0  0
    0.8829    4.1621    0.2383 H   0  0  0  0  0  0  0  0  0  0  0  0
  1  2  1  0  0  0  0
  2  3  1  0  0  0  0
  2  4  1  0  0  0  0
  2  5  1  0  0  0  0
  5  6  2  0  0  0  0
  5  7  1  0  0  0  0
  7  8  1  0  0  0  0
  7  9  1  0  0  0  0
  9 10  1  0  0  0  0
  9 11  1  0  0  0  0
  9 16  1  0  0  0  0
 11 12  1  0  0  0  0
 11 13  1  0  0  0  0
 11 14  1  0  0  0  0
 14 15  1  0  0  0  0
 16 17  2  0  0  0  0
 16 18  1  0  0  0  0
 18 19  1  0  0  0  0
 18 20  1  0  0  0  0
 20 21  1  0  0  0  0
 20 22  1  0  0  0  0
 20 23  1  0  0  0  0
M  END
$$$$

  -OEChem-01062216093D

 23 22  0     1  0  0  0  0  0999 V2000
   -2.6457   -3.7037    1.0048 H   0  0  0  0  0  0  0  0  0  0  0  0
   -2.6516   -2.6650    0.6635 C   0  0  0  0  0  0  0  0  0  0  0  0
   -3.3981   -2.1093    1.2359 H   0  0  0  0  0  0  0  0  0  0  0  0
   -2.9234   -2.6432   -0.3946 H   0  0  0  0  0  0  0  0  0  0  0  0
   -1.2822   -2.0426    0.8583 C   0  0  0  0  0  0  0  0  0  0  0  0
   -0.3773   -2.6913    1.3612 O   0  0  0  0  0  0  0  0  0  0  0  0
   -1.0595   -0.7391    0.4744 N   0  0  0  0  0  0  0  0  0  0  0  0
   -1.8114   -0.2514   -0.0107 H   0  0  0  0  0  0  0  0  0  0  0  0
    0.2586   -0.0852    0.4609 C   0  0  1  0  0  0  0  0  0  0  0  0
    0.7505   -0.2988    1.4144 H   0  0  0  0  0  0  0  0  0  0  0  0
    1.1422   -0.6426   -0.6663 C   0  0  0  0  0  0  0  0  0  0  0  0
    2.1504   -0.2256   -0.5763 H   0  0  0  0  0  0  0  0  0  0  0  0
    1.2257   -1.7298   -0.5693 H   0  0  0  0  0  0  0  0  0  0  0  0
    0.6118   -0.3171   -1.9559 O   0  0  0  0  0  0  0  0  0  0  0  0
    1.1420   -0.7242   -2.6626 H   0  0  0  0  0  0  0  0  0  0  0  0
    0.1408    1.4472    0.3464 C   0  0  0  0  0  0  0  0  0  0  0  0
   -0.8878    1.9652   -0.0782 O   0  0  0  0  0  0  0  0  0  0  0  0
    1.1085    2.2602    0.9111 N   0  0  0  0  0  0  0  0  0  0  0  0
    1.9268    1.8125    1.3122 H   0  0  0  0  0  0  0  0  0  0  0  0
    1.0109    3.7144    0.9454 C   0  0  0  0  0  0  0  0  0  0  0  0
    0.1415    4.0260    1.5338 H   0  0  0  0  0  0  0  0  0  0  0  0
    1.9086    4.1435    1.4008 H   0  0  0  0  0  0  0  0  0  0  0  0
    0.9129    4.1158   -0.0688 H   0  0  0  0  0  0  0  0  0  0  0  0
  1  2  1  0  0  0  0
  2  3  1  0  0  0  0
  2  4  1  0  0  0  0
  2  5  1  0  0  0  0
  5  6  2  0  0  0  0
  5  7  1  0  0  0  0
  7  8  1  0  0  0  0
  7  9  1  0  0  0  0
  9 10  1  0  0  0  0
  9 11  1  0  0  0  0
  9 16  1  0  0  0  0
 11 12  1  0  0  0  0
 11 13  1  0  0  0  0
 11 14  1  0  0  0  0
 14 15  1  0  0  0  0
 16 17  2  0  0  0  0
 16 18  1  0  0  0  0
 18 19  1  0  0  0  0
 18 20  1  0  0  0  0
 20 21  1  0  0  0  0
 20 22  1  0  0  0  0
 20 23  1  0  0  0  0
M  END
$$$$

  -OEChem-01062216093D

 23 22  0     1  0  0  0  0  0999 V2000
   -2.6580   -3.7046    1.0057 H   0  0  0  0  0  0  0  0  0  0  0  0
   -2.6621   -2.6597    0.6835 C   0  0  0  0  0  0  0  0  0  0  0  0
   -3.3765   -2.1041    1.2956 H   0  0  0  0  0  0  0  0  0  0  0  0
   -2.9754   -2.6146   -0.3624 H   0  0  0  0  0  0  0  0  0  0  0  0
   -1.2769   -2.0607    0.8342 C   0  0  0  0  0  0  0  0  0  0  0  0
   -0.3646   -2.7301    1.2946 O   0  0  0  0  0  0  0  0  0  0  0  0
   -1.0489   -0.7553    0.4608 N   0  0  0  0  0  0  0  0  0  0  0  0
   -1.8212   -0.2300    0.0534 H   0  0  0  0  0  0  0  0  0  0  0  0
    0.2662   -0.0947    0.4668 C   0  0  1  0  0  0  0  0  0  0  0  0
    0.7549   -0.3111    1.4214 H   0  0  0  0  0  0  0  0  0  0  0  0
    1.1536   -0.6350   -0.6664 C   0  0  0  0  0  0  0  0  0  0  0  0
    2.1629   -0.2226   -0.5696 H   0  0  0  0  0  0  0  0  0  0  0  0
    1.2358   -1.7236   -0.5866 H   0  0  0  0  0  0  0  0  0  0  0  0
    0.6227   -0.2890   -1.9508 O   0  0  0  0  0  0  0  0  0  0  0  0
    1.1410   -0.7013   -2.6633 H   0  0  0  0  0  0  0  0  0  0  0  0
    0.1390    1.4383    0.3578 C   0  0  0  0  0  0  0  0  0  0  0  0
   -0.9505    1.9593    0.1366 O   0  0  0  0  0  0  0  0  0  0  0  0
    1.2188    2.2526    0.6532 N   0  0  0  0  0  0  0  0  0  0  0  0
    2.1103    1.8043    0.8397 H   0  0  0  0  0  0  0  0  0  0  0  0
    1.1561    3.7086    0.6126 C   0  0  0  0  0  0  0  0  0  0  0  0
    0.4169    4.0811    1.3295 H   0  0  0  0  0  0  0  0  0  0  0  0
    2.1304    4.1360    0.8682 H   0  0  0  0  0  0  0  0  0  0  0  0
    0.8794    4.0522   -0.3899 H   0  0  0  0  0  0  0  0  0  0  0  0
  1  2  1  0  0  0  0
  2  3  1  0  0  0  0
  2  4  1  0  0  0  0
  2  5  1  0  0  0  0
  5  6  2  0  0  0  0
  5  7  1  0  0  0  0
  7  8  1  0  0  0  0
  7  9  1  0  0  0  0
  9 10  1  0  0  0  0
  9 11  1  0  0  0  0
  9 16  1  0  0  0  0
 11 12  1  0  0  0  0
 11 13  1  0  0  0  0
 11 14  1  0  0  0  0
 14 15  1  0  0  0  0
 16 17  2  0  0  0  0
 16 18  1  0  0  0  0
 18 19  1  0  0  0  0
 18 20  1  0  0  0  0
 20 21  1  0  0  0  0
 20 22  1  0  0  0  0
 20 23  1  0  0  0  0
M  END
$$$$

  -OEChem-01062216093D

 23 22  0     1  0  0  0  0  0999 V2000
   -2.6823   -3.6714    1.0326 H   0  0  0  0  0  0  0  0  0  0  0  0
   -2.6860   -2.6176    0.7402 C   0  0  0  0  0  0  0  0  0  0  0  0
   -3.2949   -2.0557    1.4527 H   0  0  0  0  0  0  0  0  0  0  0  0
   -3.1278   -2.5292   -0.2553 H   0  0  0  0  0  0  0  0  0  0  0  0
   -1.2700   -2.0739    0.7278 C   0  0  0  0  0  0  0  0  0  0  0  0
   -0.3316   -2.7952    1.0299 O   0  0  0  0  0  0  0  0  0  0  0  0
   -1.0403   -0.7641    0.3716 N   0  0  0  0  0  0  0  0  0  0  0  0
   -1.8482   -0.1648    0.2099 H   0  0  0  0  0  0  0  0  0  0  0  0
    0.2723   -0.1007    0.4333 C   0  0  1  0  0  0  0  0  0  0  0  0
    0.8427   -0.5176    1.2693 H   0  0  0  0  0  0  0  0  0  0  0  0
    1.0495   -0.3694   -0.8632 C   0  0  0  0  0  0  0  0  0  0  0  0
    2.0716    0.0108   -0.7693 H   0  0  0  0  0  0  0  0  0  0  0  0
    1.1141   -1.4499   -1.0287 H   0  0  0  0  0  0  0  0  0  0  0  0
    0.4124    0.2488   -1.9874 O   0  0  0  0  0  0  0  0  0  0  0  0
    0.8345   -0.0266   -2.8196 H   0  0  0  0  0  0  0  0  0  0  0  0
    0.1394    1.4125    0.7036 C   0  0  0  0  0  0  0  0  0  0  0  0
   -0.9626    1.9074    0.9235 O   0  0  0  0  0  0  0  0  0  0  0  0
    1.2620    2.2172    0.7979 N   0  0  0  0  0  0  0  0  0  0  0  0
    2.1580    1.8006    0.5658 H   0  0  0  0  0  0  0  0  0  0  0  0
    1.1965    3.6515    1.0503 C   0  0  0  0  0  0  0  0  0  0  0  0
    0.6940    3.8510    2.0027 H   0  0  0  0  0  0  0  0  0  0  0  0
    2.2049    4.0734    1.0986 H   0  0  0  0  0  0  0  0  0  0  0  0
    0.6470    4.1563    0.2488 H   0  0  0  0  0  0  0  0  0  0  0  0
  1  2  1  0  0  0  0
  2  3  1  0  0  0  0
  2  4  1  0  0  0  0
  2  5  1  0  0  0  0
  5  6  2  0  0  0  0
  5  7  1  0  0  0  0
  7  8  1  0  0  0  0
  7  9  1  0  0  0  0
  9 10  1  0  0  0  0
  9 11  1  0  0  0  0
  9 16  1  0  0  0  0
 11 12  1  0  0  0  0
 11 13  1  0  0  0  0
 11 14  1  0  0  0  0
 14 15  1  0  0  0  0
 16 17  2  0  0  0  0
 16 18  1  0  0  0  0
 18 19  1  0  0  0  0
 18 20  1  0  0  0  0
 20 21  1  0  0  0  0
 20 22  1  0  0  0  0
 20 23  1  0  0  0  0
M  END
$$$$

  -OEChem-01062216093D

 23 22  0     1  0  0  0  0  0999 V2000
   -2.6933   -3.6462    1.0671 H   0  0  0  0  0  0  0  0  0  0  0  0
   -2.6919   -2.5948    0.7667 C   0  0  0  0  0  0  0  0  0  0  0  0
   -3.2600   -2.0179    1.5004 H   0  0  0  0  0  0  0  0  0  0  0  0
   -3.1742   -2.5058   -0.2096 H   0  0  0  0  0  0  0  0  0  0  0  0
   -1.2690   -2.0751    0.6893 C   0  0  0  0  0  0  0  0  0  0  0  0
   -0.3299   -2.8170    0.9335 O   0  0  0  0  0  0  0  0  0  0  0  0
   -1.0357   -0.7622    0.3456 N   0  0  0  0  0  0  0  0  0  0  0  0
   -1.8434   -0.1454    0.2773 H   0  0  0  0  0  0  0  0  0  0  0  0
    0.2836   -0.1115    0.4213 C   0  0  1  0  0  0  0  0  0  0  0  0
    0.8448   -0.5364    1.2593 H   0  0  0  0  0  0  0  0  0  0  0  0
    1.0720   -0.3826   -0.8693 C   0  0  0  0  0  0  0  0  0  0  0  0
    2.0988   -0.0187   -0.7634 H   0  0  0  0  0  0  0  0  0  0  0  0
    1.1246   -1.4633   -1.0387 H   0  0  0  0  0  0  0  0  0  0  0  0
    0.4536    0.2458   -1.9986 O   0  0  0  0  0  0  0  0  0  0  0  0
    0.8557   -0.0634   -2.8292 H   0  0  0  0  0  0  0  0  0  0  0  0
    0.1502    1.4002    0.7073 C   0  0  0  0  0  0  0  0  0  0  0  0
   -0.9044    1.8458    1.1506 O   0  0  0  0  0  0  0  0  0  0  0  0
    1.2126    2.2685    0.5221 N   0  0  0  0  0  0  0  0  0  0  0  0
    2.0234    1.9039    0.0322 H   0  0  0  0  0  0  0  0  0  0  0  0
    1.1044    3.7091    0.7176 C   0  0  0  0  0  0  0  0  0  0  0  0
    0.7759    3.9347    1.7377 H   0  0  0  0  0  0  0  0  0  0  0  0
    2.0758    4.1862    0.5568 H   0  0  0  0  0  0  0  0  0  0  0  0
    0.3851    4.1380    0.0121 H   0  0  0  0  0  0  0  0  0  0  0  0
  1  2  1  0  0  0  0
  2  3  1  0  0  0  0
  2  4  1  0  0  0  0
  2  5  1  0  0  0  0
  5  6  2  0  0  0  0
  5  7  1  0  0  0  0
  7  8  1  0  0  0  0
  7  9  1  0  0  0  0
  9 10  1  0  0  0  0
  9 11  1  0  0  0  0
  9 16  1  0  0  0  0
 11 12  1  0  0  0  0
 11 13  1  0  0  0  0
 11 14  1  0  0  0  0
 14 15  1  0  0  0  0
 16 17  2  0  0  0  0
 16 18  1  0  0  0  0
 18 19  1  0  0  0  0
 18 20  1  0  0  0  0
 20 21  1  0  0  0  0
 20 22  1  0  0  0  0
 20 23  1  0  0  0  0
M  END
$$$$

  -OEChem-01062216093D

 23 22  0     1  0  0  0  0  0999 V2000
   -2.6970   -3.6252    1.0907 H   0  0  0  0  0  0  0  0  0  0  0  0
   -2.6936   -2.5761    0.7821 C   0  0  0  0  0  0  0  0  0  0  0  0
   -3.2425   -1.9893    1.5227 H   0  0  0  0  0  0  0  0  0  0  0  0
   -3.1949   -2.4914   -0.1851 H   0  0  0  0  0  0  0  0  0  0  0  0
   -1.2685   -2.0684    0.6722 C   0  0  0  0  0  0  0  0  0  0  0  0
   -0.3313   -2.8221    0.8852 O   0  0  0  0  0  0  0  0  0  0  0  0
   -1.0329   -0.7544    0.3325 N   0  0  0  0  0  0  0  0  0  0  0  0
   -1.8384   -0.1320    0.3121 H   0  0  0  0  0  0  0  0  0  0  0  0
    0.2923   -0.1146    0.4096 C   0  0  1  0  0  0  0  0  0  0  0  0
    0.8467   -0.5417    1.2514 H   0  0  0  0  0  0  0  0  0  0  0  0
    1.0923   -0.3972   -0.8726 C   0  0  0  0  0  0  0  0  0  0  0  0
    2.1214   -0.0422   -0.7566 H   0  0  0  0  0  0  0  0  0  0  0  0
    1.1375   -1.4789   -1.0360 H   0  0  0  0  0  0  0  0  0  0  0  0
    0.4921    0.2284   -2.0135 O   0  0  0  0  0  0  0  0  0  0  0  0
    0.8690   -0.1266   -2.8380 H   0  0  0  0  0  0  0  0  0  0  0  0
    0.1618    1.3961    0.7030 C   0  0  0  0  0  0  0  0  0  0  0  0
   -0.7913    1.8010    1.3613 O   0  0  0  0  0  0  0  0  0  0  0  0
    1.0936    2.3132    0.2486 N   0  0  0  0  0  0  0  0  0  0  0  0
    1.7271    1.9800   -0.4725 H   0  0  0  0  0  0  0  0  0  0  0  0
    0.9351    3.7526    0.4175 C   0  0  0  0  0  0  0  0  0  0  0  0
    0.8138    4.0051    1.4764 H   0  0  0  0  0  0  0  0  0  0  0  0
    1.8187    4.2764    0.0405 H   0  0  0  0  0  0  0  0  0  0  0  0
    0.0579    4.1084   -0.1330 H   0  0  0  0  0  0  0  0  0  0  0  0
  1  2  1  0  0  0  0
  2  3  1  0  0  0  0
  2  4  1  0  0  0  0
  2  5  1  0  0  0  0
  5  6  2  0  0  0  0
  5  7  1  0  0  0  0
  7  8  1  0  0  0  0
  7  9  1  0  0  0  0
  9 10  1  0  0  0  0
  9 11  1  0  0  0  0
  9 16  1  0  0  0  0
 11 12  1  0  0  0  0
 11 13  1  0  0  0  0
 11 14  1  0  0  0  0
 14 15  1  0  0  0  0
 16 17  2  0  0  0  0
 16 18  1  0  0  0  0
 18 19  1  0  0  0  0
 18 20  1  0  0  0  0
 20 21  1  0  0  0  0
 20 22  1  0  0  0  0
 20 23  1  0  0  0  0
M  END
$$$$

  -OEChem-01062216093D

 23 22  0     1  0  0  0  0  0999 V2000
   -2.6957   -3.6123    1.1085 H   0  0  0  0  0  0  0  0  0  0  0  0
   -2.6932   -2.5646    0.7947 C   0  0  0  0  0  0  0  0  0  0  0  0
   -3.2297   -1.9729    1.5405 H   0  0  0  0  0  0  0  0  0  0  0  0
   -3.2080   -2.4825   -0.1656 H   0  0  0  0  0  0  0  0  0  0  0  0
   -1.2680   -2.0619    0.6627 C   0  0  0  0  0  0  0  0  0  0  0  0
   -0.3309   -2.8196    0.8605 O   0  0  0  0  0  0  0  0  0  0  0  0
   -1.0339   -0.7476    0.3217 N   0  0  0  0  0  0  0  0  0  0  0  0
   -1.8403   -0.1274    0.3138 H   0  0  0  0  0  0  0  0  0  0  0  0
    0.2936   -0.1118    0.3967 C   0  0  1  0  0  0  0  0  0  0  0  0
    0.8415   -0.5360    1.2445 H   0  0  0  0  0  0  0  0  0  0  0  0
    1.1074   -0.4084   -0.8751 C   0  0  0  0  0  0  0  0  0  0  0  0
    2.1348   -0.0516   -0.7485 H   0  0  0  0  0  0  0  0  0  0  0  0
    1.1550   -1.4919   -1.0251 H   0  0  0  0  0  0  0  0  0  0  0  0
    0.5260    0.2030   -2.0348 O   0  0  0  0  0  0  0  0  0  0  0  0
    0.8992   -0.1840   -2.8471 H   0  0  0  0  0  0  0  0  0  0  0  0
    0.1664    1.3984    0.6908 C   0  0  0  0  0  0  0  0  0  0  0  0
   -0.6373    1.7763    1.5360 O   0  0  0  0  0  0  0  0  0  0  0  0
    0.9032    2.3451    0.0015 N   0  0  0  0  0  0  0  0  0  0  0  0
    1.3283    2.0129   -0.8618 H   0  0  0  0  0  0  0  0  0  0  0  0
    0.6960    3.7791    0.1626 C   0  0  0  0  0  0  0  0  0  0  0  0
    0.8194    4.0693    1.2114 H   0  0  0  0  0  0  0  0  0  0  0  0
    1.4251    4.3352   -0.4345 H   0  0  0  0  0  0  0  0  0  0  0  0
   -0.3105    4.0603   -0.1646 H   0  0  0  0  0  0  0  0  0  0  0  0
  1  2  1  0  0  0  0
  2  3  1  0  0  0  0
  2  4  1  0  0  0  0
  2  5  1  0  0  0  0
  5  6  2  0  0  0  0
  5  7  1  0  0  0  0
  7  8  1  0  0  0  0
  7  9  1  0  0  0  0
  9 10  1  0  0  0  0
  9 11  1  0  0  0  0
  9 16  1  0  0  0  0
 11 12  1  0  0  0  0
 11 13  1  0  0  0  0
 11 14  1  0  0  0  0
 14 15  1  0  0  0  0
 16 17  2  0  0  0  0
 16 18  1  0  0  0  0
 18 19  1  0  0  0  0
 18 20  1  0  0  0  0
 20 21  1  0  0  0  0
 20 22  1  0  0  0  0
 20 23  1  0  0  0  0
M  END
$$$$

  -OEChem-01062216093D

 23 22  0     1  0  0  0  0  0999 V2000
   -2.6824   -3.6189    1.1087 H   0  0  0  0  0  0  0  0  0  0  0  0
   -2.6860   -2.5718    0.7931 C   0  0  0  0  0  0  0  0  0  0  0  0
   -3.2358   -1.9839    1.5320 H   0  0  0  0  0  0  0  0  0  0  0  0
   -3.1910   -2.4963   -0.1728 H   0  0  0  0  0  0  0  0  0  0  0  0
   -1.2637   -2.0571    0.6759 C   0  0  0  0  0  0  0  0  0  0  0  0
   -0.3231   -2.8079    0.8817 O   0  0  0  0  0  0  0  0  0  0  0  0
   -1.0362   -0.7424    0.3303 N   0  0  0  0  0  0  0  0  0  0  0  0
   -1.8485   -0.1324    0.2909 H   0  0  0  0  0  0  0  0  0  0  0  0
    0.2898   -0.1014    0.3941 C   0  0  1  0  0  0  0  0  0  0  0  0
    0.8423   -0.5215    1.2410 H   0  0  0  0  0  0  0  0  0  0  0  0
    1.0985   -0.4141   -0.8786 C   0  0  0  0  0  0  0  0  0  0  0  0
    2.1240   -0.0491   -0.7594 H   0  0  0  0  0  0  0  0  0  0  0  0
    1.1517   -1.4998   -1.0107 H   0  0  0  0  0  0  0  0  0  0  0  0
    0.5171    0.1757   -2.0513 O   0  0  0  0  0  0  0  0  0  0  0  0
    0.8979   -0.2243   -2.8541 H   0  0  0  0  0  0  0  0  0  0  0  0
    0.1712    1.4095    0.6853 C   0  0  0  0  0  0  0  0  0  0  0  0
   -0.4429    1.7793    1.6786 O   0  0  0  0  0  0  0  0  0  0  0  0
    0.6564    2.3635   -0.1898 N   0  0  0  0  0  0  0  0  0  0  0  0
    0.9081    2.0081   -1.1121 H   0  0  0  0  0  0  0  0  0  0  0  0
    0.4066    3.7910   -0.0347 C   0  0  0  0  0  0  0  0  0  0  0  0
    0.7591    4.1388    0.9421 H   0  0  0  0  0  0  0  0  0  0  0  0
    0.9365    4.3525   -0.8101 H   0  0  0  0  0  0  0  0  0  0  0  0
   -0.6639    4.0046   -0.1197 H   0  0  0  0  0  0  0  0  0  0  0  0
  1  2  1  0  0  0  0
  2  3  1  0  0  0  0
  2  4  1  0  0  0  0
  2  5  1  0  0  0  0
  5  6  2  0  0  0  0
  5  7  1  0  0  0  0
  7  8  1  0  0  0  0
  7  9  1  0  0  0  0
  9 10  1  0  0  0  0
  9 11  1  0  0  0  0
  9 16  1  0  0  0  0
 11 12  1  0  0  0  0
 11 13  1  0  0  0  0
 11 14  1  0  0  0  0
 14 15  1  0  0  0  0
 16 17  2  0  0  0  0
 16 18  1  0  0  0  0
 18 19  1  0  0  0  0
 18 20  1  0  0  0  0
 20 21  1  0  0  0  0
 20 22  1  0  0  0  0
 20 23  1  0  0  0  0
M  END
$$$$

  -OEChem-01062216093D

 23 22  0     1  0  0  0  0  0999 V2000
   -2.6642   -3.6393    1.1011 H   0  0  0  0  0  0  0  0  0  0  0  0
   -2.6757   -2.5914    0.7883 C   0  0  0  0  0  0  0  0  0  0  0  0
   -3.2496   -2.0136    1.5169 H   0  0  0  0  0  0  0  0  0  0  0  0
   -3.1607   -2.5203   -0.1882 H   0  0  0  0  0  0  0  0  0  0  0  0
   -1.2588   -2.0566    0.7032 C   0  0  0  0  0  0  0  0  0  0  0  0
   -0.3133   -2.7924    0.9381 O   0  0  0  0  0  0  0  0  0  0  0  0
   -1.0419   -0.7428    0.3467 N   0  0  0  0  0  0  0  0  0  0  0  0
   -1.8611   -0.1514    0.2405 H   0  0  0  0  0  0  0  0  0  0  0  0
    0.2786   -0.0890    0.3945 C   0  0  1  0  0  0  0  0  0  0  0  0
    0.8398   -0.4987    1.2412 H   0  0  0  0  0  0  0  0  0  0  0  0
    1.0781   -0.4167   -0.8811 C   0  0  0  0  0  0  0  0  0  0  0  0
    2.0999   -0.0382   -0.7738 H   0  0  0  0  0  0  0  0  0  0  0  0
    1.1427   -1.5038   -0.9939 H   0  0  0  0  0  0  0  0  0  0  0  0
    0.4884    0.1458   -2.0645 O   0  0  0  0  0  0  0  0  0  0  0  0
    0.8988   -0.2408   -2.8596 H   0  0  0  0  0  0  0  0  0  0  0  0
    0.1622    1.4234    0.6746 C   0  0  0  0  0  0  0  0  0  0  0  0
   -0.2171    1.8020    1.7752 O   0  0  0  0  0  0  0  0  0  0  0  0
    0.3510    2.3637   -0.3198 N   0  0  0  0  0  0  0  0  0  0  0  0
    0.4768    1.9851   -1.2596 H   0  0  0  0  0  0  0  0  0  0  0  0
    0.0816    3.7859   -0.1532 C   0  0  0  0  0  0  0  0  0  0  0  0
    0.6596    4.1899    0.6846 H   0  0  0  0  0  0  0  0  0  0  0  0
    0.3626    4.3315   -1.0589 H   0  0  0  0  0  0  0  0  0  0  0  0
   -0.9831    3.9540    0.0391 H   0  0  0  0  0  0  0  0  0  0  0  0
  1  2  1  0  0  0  0
  2  3  1  0  0  0  0
  2  4  1  0  0  0  0
  2  5  1  0  0  0  0
  5  6  2  0  0  0  0
  5  7  1  0  0  0  0
  7  8  1  0  0  0  0
  7  9  1  0  0  0  0
  9 10  1  0  0  0  0
  9 11  1  0  0  0  0
  9 16  1  0  0  0  0
 11 12  1  0  0  0  0
 11 13  1  0  0  0  0
 11 14  1  0  0  0  0
 14 15  1  0  0  0  0
 16 17  2  0  0  0  0
 16 18  1  0  0  0  0
 18 19  1  0  0  0  0
 18 20  1  0  0  0  0
 20 21  1  0  0  0  0
 20 22  1  0  0  0  0
 20 23  1  0  0  0  0
M  END
$$$$

  -OEChem-01062216093D

 23 22  0     1  0  0  0  0  0999 V2000
   -2.6330   -3.6894    1.0851 H   0  0  0  0  0  0  0  0  0  0  0  0
   -2.6619   -2.6401    0.7779 C   0  0  0  0  0  0  0  0  0  0  0  0
   -3.2717   -2.0818    1.4924 H   0  0  0  0  0  0  0  0  0  0  0  0
   -3.1198   -2.5753   -0.2120 H   0  0  0  0  0  0  0  0  0  0  0  0
   -1.2569   -2.0693    0.7379 C   0  0  0  0  0  0  0  0  0  0  0  0
   -0.3026   -2.7768    1.0181 O   0  0  0  0  0  0  0  0  0  0  0  0
   -1.0596   -0.7559    0.3681 N   0  0  0  0  0  0  0  0  0  0  0  0
   -1.8849   -0.1991    0.1666 H   0  0  0  0  0  0  0  0  0  0  0  0
    0.2485   -0.0761    0.4045 C   0  0  1  0  0  0  0  0  0  0  0  0
    0.8206   -0.4700    1.2517 H   0  0  0  0  0  0  0  0  0  0  0  0
    1.0486   -0.3997   -0.8710 C   0  0  0  0  0  0  0  0  0  0  0  0
    2.0618    0.0035   -0.7702 H   0  0  0  0  0  0  0  0  0  0  0  0
    1.1367   -1.4863   -0.9730 H   0  0  0  0  0  0  0  0  0  0  0  0
    0.4448    0.1388   -2.0592 O   0  0  0  0  0  0  0  0  0  0  0  0
    0.8948   -0.2109   -2.8502 H   0  0  0  0  0  0  0  0  0  0  0  0
    0.1122    1.4366    0.6684 C   0  0  0  0  0  0  0  0  0  0  0  0
    0.0093    1.8461    1.8169 O   0  0  0  0  0  0  0  0  0  0  0  0
   -0.0210    2.3373   -0.3700 N   0  0  0  0  0  0  0  0  0  0  0  0
    0.0289    1.9426   -1.3106 H   0  0  0  0  0  0  0  0  0  0  0  0
   -0.2314    3.7678   -0.1937 C   0  0  0  0  0  0  0  0  0  0  0  0
    0.5945    4.2091    0.3738 H   0  0  0  0  0  0  0  0  0  0  0  0
   -0.2861    4.2641   -1.1672 H   0  0  0  0  0  0  0  0  0  0  0  0
   -1.1674    3.9538    0.3430 H   0  0  0  0  0  0  0  0  0  0  0  0
  1  2  1  0  0  0  0
  2  3  1  0  0  0  0
  2  4  1  0  0  0  0
  2  5  1  0  0  0  0
  5  6  2  0  0  0  0
  5  7  1  0  0  0  0
  7  8  1  0  0  0  0
  7  9  1  0  0  0  0
  9 10  1  0  0  0  0
  9 11  1  0  0  0  0
  9 16  1  0  0  0  0
 11 12  1  0  0  0  0
 11 13  1  0  0  0  0
 11 14  1  0  0  0  0
 14 15  1  0  0  0  0
 16 17  2  0  0  0  0
 16 18  1  0  0  0  0
 18 19  1  0  0  0  0
 18 20  1  0  0  0  0
 20 21  1  0  0  0  0
 20 22  1  0  0  0  0
 20 23  1  0  0  0  0
M  END
$$$$

  -OEChem-01062216093D

 23 22  0     1  0  0  0  0  0999 V2000
   -2.5956   -3.7469    1.0639 H   0  0  0  0  0  0  0  0  0  0  0  0
   -2.6415   -2.6984    0.7569 C   0  0  0  0  0  0  0  0  0  0  0  0
   -3.2955   -2.1585    1.4458 H   0  0  0  0  0  0  0  0  0  0  0  0
   -3.0596   -2.6446   -0.2510 H   0  0  0  0  0  0  0  0  0  0  0  0
   -1.2530   -2.0877    0.7766 C   0  0  0  0  0  0  0  0  0  0  0  0
   -0.2923   -2.7651    1.1038 O   0  0  0  0  0  0  0  0  0  0  0  0
   -1.0777   -0.7730    0.4004 N   0  0  0  0  0  0  0  0  0  0  0  0
   -1.9020   -0.2548    0.1114 H   0  0  0  0  0  0  0  0  0  0  0  0
    0.2167   -0.0675    0.4327 C   0  0  1  0  0  0  0  0  0  0  0  0
    0.8036   -0.4516    1.2747 H   0  0  0  0  0  0  0  0  0  0  0  0
    1.0065   -0.3666   -0.8531 C   0  0  0  0  0  0  0  0  0  0  0  0
    2.0125    0.0560   -0.7622 H   0  0  0  0  0  0  0  0  0  0  0  0
    1.1145   -1.4505   -0.9657 H   0  0  0  0  0  0  0  0  0  0  0  0
    0.3729    0.1728   -2.0255 O   0  0  0  0  0  0  0  0  0  0  0  0
    0.8437   -0.1244   -2.8258 H   0  0  0  0  0  0  0  0  0  0  0  0
    0.0546    1.4426    0.6881 C   0  0  0  0  0  0  0  0  0  0  0  0
    0.2432    1.9019    1.8063 O   0  0  0  0  0  0  0  0  0  0  0  0
   -0.3972    2.2803   -0.3131 N   0  0  0  0  0  0  0  0  0  0  0  0
   -0.4120    1.8709   -1.2484 H   0  0  0  0  0  0  0  0  0  0  0  0
   -0.5223    3.7238   -0.1622 C   0  0  0  0  0  0  0  0  0  0  0  0
    0.4521    4.1712    0.0600 H   0  0  0  0  0  0  0  0  0  0  0  0
   -0.9067    4.1675   -1.0856 H   0  0  0  0  0  0  0  0  0  0  0  0
   -1.2152    3.9657    0.6507 H   0  0  0  0  0  0  0  0  0  0  0  0
  1  2  1  0  0  0  0
  2  3  1  0  0  0  0
  2  4  1  0  0  0  0
  2  5  1  0  0  0  0
  5  6  2  0  0  0  0
  5  7  1  0  0  0  0
  7  8  1  0  0  0  0
  7  9  1  0  0  0  0
  9 10  1  0  0  0  0
  9 11  1  0  0  0  0
  9 16  1  0  0  0  0
 11 12  1  0  0  0  0
 11 13  1  0  0  0  0
 11 14  1  0  0  0  0
 14 15  1  0  0  0  0
 16 17  2  0  0  0  0
 16 18  1  0  0  0  0
 18 19  1  0  0  0  0
 18 20  1  0  0  0  0
 20 21  1  0  0  0  0
 20 22  1  0  0  0  0
 20 23  1  0  0  0  0
M  END
$$$$

  -OEChem-01062216093D

 23 22  0     1  0  0  0  0  0999 V2000
   -2.5777   -3.7855    1.0516 H   0  0  0  0  0  0  0  0  0  0  0  0
   -2.6330   -2.7357    0.7500 C   0  0  0  0  0  0  0  0  0  0  0  0
   -3.3034   -2.2091    1.4334 H   0  0  0  0  0  0  0  0  0  0  0  0
   -3.0387   -2.6811   -0.2630 H   0  0  0  0  0  0  0  0  0  0  0  0
   -1.2527   -2.1072    0.7913 C   0  0  0  0  0  0  0  0  0  0  0  0
   -0.2891   -2.7731    1.1325 O   0  0  0  0  0  0  0  0  0  0  0  0
   -1.0870   -0.7906    0.4167 N   0  0  0  0  0  0  0  0  0  0  0  0
   -1.9124   -0.2830    0.1131 H   0  0  0  0  0  0  0  0  0  0  0  0
    0.2013   -0.0730    0.4597 C   0  0  1  0  0  0  0  0  0  0  0  0
    0.7960   -0.4610    1.2943 H   0  0  0  0  0  0  0  0  0  0  0  0
    0.9797   -0.3381   -0.8371 C   0  0  0  0  0  0  0  0  0  0  0  0
    1.9824    0.0931   -0.7491 H   0  0  0  0  0  0  0  0  0  0  0  0
    1.0962   -1.4180   -0.9768 H   0  0  0  0  0  0  0  0  0  0  0  0
    0.3202    0.2266   -1.9829 O   0  0  0  0  0  0  0  0  0  0  0  0
    0.8031   -0.0102   -2.7958 H   0  0  0  0  0  0  0  0  0  0  0  0
    0.0337    1.4354    0.7133 C   0  0  0  0  0  0  0  0  0  0  0  0
    0.4781    1.9457    1.7326 O   0  0  0  0  0  0  0  0  0  0  0  0
   -0.6935    2.2085   -0.1723 N   0  0  0  0  0  0  0  0  0  0  0  0
   -0.8220    1.7851   -1.0915 H   0  0  0  0  0  0  0  0  0  0  0  0
   -0.8056    3.6563   -0.0479 C   0  0  0  0  0  0  0  0  0  0  0  0
    0.1808    4.1249   -0.1291 H   0  0  0  0  0  0  0  0  0  0  0  0
   -1.4470    4.0553   -0.8396 H   0  0  0  0  0  0  0  0  0  0  0  0
   -1.2448    3.9257    0.9185 H   0  0  0  0  0  0  0  0  0  0  0  0
  1  2  1  0  0  0  0
  2  3  1  0  0  0  0
  2  4  1  0  0  0  0
  2  5  1  0  0  0  0
  5  6  2  0  0  0  0
  5  7  1  0  0  0  0
  7  8  1  0  0  0  0
  7  9  1  0  0  0  0
  9 10  1  0  0  0  0
  9 11  1  0  0  0  0
  9 16  1  0  0  0  0
 11 12  1  0  0  0  0
 11 13  1  0  0  0  0
 11 14  1  0  0  0  0
 14 15  1  0  0  0  0
 16 17  2  0  0  0  0
 16 18  1  0  0  0  0
 18 19  1  0  0  0  0
 18 20  1  0  0  0  0
 20 21  1  0  0  0  0
 20 22  1  0  0  0  0
 20 23  1  0  0  0  0
M  END
$$$$

  -OEChem-01062216093D

 23 22  0     1  0  0  0  0  0999 V2000
   -2.5715   -3.8075    1.0486 H   0  0  0  0  0  0  0  0  0  0  0  0
   -2.6291   -2.7572    0.7487 C   0  0  0  0  0  0  0  0  0  0  0  0
   -3.3053   -2.2339    1.4290 H   0  0  0  0  0  0  0  0  0  0  0  0
   -3.0283   -2.7028   -0.2670 H   0  0  0  0  0  0  0  0  0  0  0  0
   -1.2516   -2.1242    0.7993 C   0  0  0  0  0  0  0  0  0  0  0  0
   -0.2888   -2.7861    1.1497 O   0  0  0  0  0  0  0  0  0  0  0  0
   -1.0877   -0.8076    0.4243 N   0  0  0  0  0  0  0  0  0  0  0  0
   -1.9148   -0.2997    0.1274 H   0  0  0  0  0  0  0  0  0  0  0  0
    0.1992   -0.0862    0.4807 C   0  0  1  0  0  0  0  0  0  0  0  0
    0.7980   -0.4800    1.3095 H   0  0  0  0  0  0  0  0  0  0  0  0
    0.9648   -0.3235   -0.8262 C   0  0  0  0  0  0  0  0  0  0  0  0
    1.9669    0.1098   -0.7413 H   0  0  0  0  0  0  0  0  0  0  0  0
    1.0821   -1.3995   -0.9936 H   0  0  0  0  0  0  0  0  0  0  0  0
    0.2814    0.2708   -1.9426 O   0  0  0  0  0  0  0  0  0  0  0  0
    0.7694    0.0922   -2.7669 H   0  0  0  0  0  0  0  0  0  0  0  0
    0.0387    1.4228    0.7299 C   0  0  0  0  0  0  0  0  0  0  0  0
    0.6954    1.9800    1.5992 O   0  0  0  0  0  0  0  0  0  0  0  0
   -0.9142    2.1380    0.0266 N   0  0  0  0  0  0  0  0  0  0  0  0
   -1.1915    1.7059   -0.8529 H   0  0  0  0  0  0  0  0  0  0  0  0
   -1.0558    3.5829    0.1549 C   0  0  0  0  0  0  0  0  0  0  0  0
   -0.1406    4.0881   -0.1712 H   0  0  0  0  0  0  0  0  0  0  0  0
   -1.8879    3.9365   -0.4615 H   0  0  0  0  0  0  0  0  0  0  0  0
   -1.2587    3.8583    1.1953 H   0  0  0  0  0  0  0  0  0  0  0  0
  1  2  1  0  0  0  0
  2  3  1  0  0  0  0
  2  4  1  0  0  0  0
  2  5  1  0  0  0  0
  5  6  2  0  0  0  0
  5  7  1  0  0  0  0
  7  8  1  0  0  0  0
  7  9  1  0  0  0  0
  9 10  1  0  0  0  0
  9 11  1  0  0  0  0
  9 16  1  0  0  0  0
 11 12  1  0  0  0  0
 11 13  1  0  0  0  0
 11 14  1  0  0  0  0
 14 15  1  0  0  0  0
 16 17  2  0  0  0  0
 16 18  1  0  0  0  0
 18 19  1  0  0  0  0
 18 20  1  0  0  0  0
 20 21  1  0  0  0  0
 20 22  1  0  0  0  0
 20 23  1  0  0  0  0
M  END
$$$$

  -OEChem-01062216093D

 23 22  0     1  0  0  0  0  0999 V2000
   -2.5002   -3.8763    1.0134 H   0  0  0  0  0  0  0  0  0  0  0  0
   -2.5748   -2.8388    0.6757 C   0  0  0  0  0  0  0  0  0  0  0  0
   -3.3645   -2.3404    1.2431 H   0  0  0  0  0  0  0  0  0  0  0  0
   -2.8362   -2.8324   -0.3852 H   0  0  0  0  0  0  0  0  0  0  0  0
   -1.2538   -2.1243    0.8901 C   0  0  0  0  0  0  0  0  0  0  0  0
   -0.3124   -2.7218    1.3842 O   0  0  0  0  0  0  0  0  0  0  0  0
   -1.1160   -0.8106    0.4925 N   0  0  0  0  0  0  0  0  0  0  0  0
   -1.8702   -0.4294   -0.0679 H   0  0  0  0  0  0  0  0  0  0  0  0
    0.1681   -0.0791    0.5149 C   0  0  1  0  0  0  0  0  0  0  0  0
    0.7885   -0.4633    1.3321 H   0  0  0  0  0  0  0  0  0  0  0  0
    0.8917   -0.3379   -0.8092 C   0  0  0  0  0  0  0  0  0  0  0  0
    1.8941    0.1016   -0.7671 H   0  0  0  0  0  0  0  0  0  0  0  0
    1.0078   -1.4155   -0.9659 H   0  0  0  0  0  0  0  0  0  0  0  0
    0.1612    0.2409   -1.9023 O   0  0  0  0  0  0  0  0  0  0  0  0
    0.6491    0.1134   -2.7361 H   0  0  0  0  0  0  0  0  0  0  0  0
    0.0446    1.4383    0.7466 C   0  0  0  0  0  0  0  0  0  0  0  0
    0.9336    2.0363    1.3388 O   0  0  0  0  0  0  0  0  0  0  0  0
   -1.0725    2.1378    0.3219 N   0  0  0  0  0  0  0  0  0  0  0  0
   -1.6418    1.6712   -0.3760 H   0  0  0  0  0  0  0  0  0  0  0  0
   -1.1830    3.5860    0.4459 C   0  0  0  0  0  0  0  0  0  0  0  0
   -0.4043    4.0816   -0.1433 H   0  0  0  0  0  0  0  0  0  0  0  0
   -2.1599    3.9225    0.0861 H   0  0  0  0  0  0  0  0  0  0  0  0
   -1.0801    3.8904    1.4929 H   0  0  0  0  0  0  0  0  0  0  0  0
  1  2  1  0  0  0  0
  2  3  1  0  0  0  0
  2  4  1  0  0  0  0
  2  5  1  0  0  0  0
  5  6  2  0  0  0  0
  5  7  1  0  0  0  0
  7  8  1  0  0  0  0
  7  9  1  0  0  0  0
  9 10  1  0  0  0  0
  9 11  1  0  0  0  0
  9 16  1  0  0  0  0
 11 12  1  0  0  0  0
 11 13  1  0  0  0  0
 11 14  1  0  0  0  0
 14 15  1  0  0  0  0
 16 17  2  0  0  0  0
 16 18  1  0  0  0  0
 18 19  1  0  0  0  0
 18 20  1  0  0  0  0
 20 21  1  0  0  0  0
 20 22  1  0  0  0  0
 20 23  1  0  0  0  0
M  END
$$$$

  -OEChem-01062216093D

 23 22  0     1  0  0  0  0  0999 V2000
   -2.4612   -3.8930    0.9969 H   0  0  0  0  0  0  0  0  0  0  0  0
   -2.5318   -2.8733    0.6076 C   0  0  0  0  0  0  0  0  0  0  0  0
   -3.3924   -2.3811    1.0669 H   0  0  0  0  0  0  0  0  0  0  0  0
   -2.6797   -2.9194   -0.4740 H   0  0  0  0  0  0  0  0  0  0  0  0
   -1.2633   -2.1048    0.9270 C   0  0  0  0  0  0  0  0  0  0  0  0
   -0.3538   -2.6583    1.5214 O   0  0  0  0  0  0  0  0  0  0  0  0
   -1.1386   -0.7930    0.5157 N   0  0  0  0  0  0  0  0  0  0  0  0
   -1.8055   -0.5072   -0.1950 H   0  0  0  0  0  0  0  0  0  0  0  0
    0.1534   -0.0745    0.5183 C   0  0  1  0  0  0  0  0  0  0  0  0
    0.7796   -0.4551    1.3322 H   0  0  0  0  0  0  0  0  0  0  0  0
    0.8578   -0.3652   -0.8099 C   0  0  0  0  0  0  0  0  0  0  0  0
    1.8651    0.0646   -0.7887 H   0  0  0  0  0  0  0  0  0  0  0  0
    0.9612   -1.4460   -0.9522 H   0  0  0  0  0  0  0  0  0  0  0  0
    0.1169    0.2054   -1.8986 O   0  0  0  0  0  0  0  0  0  0  0  0
    0.6229    0.1287   -2.7273 H   0  0  0  0  0  0  0  0  0  0  0  0
    0.0591    1.4469    0.7435 C   0  0  0  0  0  0  0  0  0  0  0  0
    1.0699    2.0850    1.0088 O   0  0  0  0  0  0  0  0  0  0  0  0
   -1.1440    2.1213    0.6247 N   0  0  0  0  0  0  0  0  0  0  0  0
   -1.9638    1.5714    0.3964 H   0  0  0  0  0  0  0  0  0  0  0  0
   -1.2764    3.5635    0.7870 C   0  0  0  0  0  0  0  0  0  0  0  0
   -0.6532    4.0894    0.0560 H   0  0  0  0  0  0  0  0  0  0  0  0
   -2.3167    3.8674    0.6364 H   0  0  0  0  0  0  0  0  0  0  0  0
   -0.9699    3.8657    1.7940 H   0  0  0  0  0  0  0  0  0  0  0  0
  1  2  1  0  0  0  0
  2  3  1  0  0  0  0
  2  4  1  0  0  0  0
  2  5  1  0  0  0  0
  5  6  2  0  0  0  0
  5  7  1  0  0  0  0
  7  8  1  0  0  0  0
  7  9  1  0  0  0  0
  9 10  1  0  0  0  0
  9 11  1  0  0  0  0
  9 16  1  0  0  0  0
 11 12  1  0  0  0  0
 11 13  1  0  0  0  0
 11 14  1  0  0  0  0
 14 15  1  0  0  0  0
 16 17  2  0  0  0  0
 16 18  1  0  0  0  0
 18 19  1  0  0  0  0
 18 20  1  0  0  0  0
 20 21  1  0  0  0  0
 20 22  1  0  0  0  0
 20 23  1  0  0  0  0
M  END
$$$$

  -OEChem-01062216093D

 23 22  0     1  0  0  0  0  0999 V2000
   -2.4598   -3.8805    0.9698 H   0  0  0  0  0  0  0  0  0  0  0  0
   -2.5291   -2.8592    0.5846 C   0  0  0  0  0  0  0  0  0  0  0  0
   -3.3998   -2.3735    1.0313 H   0  0  0  0  0  0  0  0  0  0  0  0
   -2.6582   -2.9011   -0.4995 H   0  0  0  0  0  0  0  0  0  0  0  0
   -1.2702   -2.0854    0.9285 C   0  0  0  0  0  0  0  0  0  0  0  0
   -0.3767   -2.6288    1.5555 O   0  0  0  0  0  0  0  0  0  0  0  0
   -1.1357   -0.7776    0.5083 N   0  0  0  0  0  0  0  0  0  0  0  0
   -1.7905   -0.4949   -0.2164 H   0  0  0  0  0  0  0  0  0  0  0  0
    0.1623   -0.0698    0.5038 C   0  0  1  0  0  0  0  0  0  0  0  0
    0.7875   -0.4450    1.3206 H   0  0  0  0  0  0  0  0  0  0  0  0
    0.8609   -0.3837   -0.8235 C   0  0  0  0  0  0  0  0  0  0  0  0
    1.8724    0.0362   -0.8111 H   0  0  0  0  0  0  0  0  0  0  0  0
    0.9544   -1.4670   -0.9533 H   0  0  0  0  0  0  0  0  0  0  0  0
    0.1223    0.1809   -1.9166 O   0  0  0  0  0  0  0  0  0  0  0  0
    0.6390    0.1207   -2.7398 H   0  0  0  0  0  0  0  0  0  0  0  0
    0.0663    1.4530    0.7203 C   0  0  0  0  0  0  0  0  0  0  0  0
    1.0806    2.1392    0.7412 O   0  0  0  0  0  0  0  0  0  0  0  0
   -1.1613    2.0661    0.9015 N   0  0  0  0  0  0  0  0  0  0  0  0
   -1.9669    1.4565    0.9934 H   0  0  0  0  0  0  0  0  0  0  0  0
   -1.3143    3.4914    1.1640 C   0  0  0  0  0  0  0  0  0  0  0  0
   -0.8761    4.0798    0.3509 H   0  0  0  0  0  0  0  0  0  0  0  0
   -2.3745    3.7499    1.2428 H   0  0  0  0  0  0  0  0  0  0  0  0
   -0.8194    3.7636    2.1022 H   0  0  0  0  0  0  0  0  0  0  0  0
  1  2  1  0  0  0  0
  2  3  1  0  0  0  0
  2  4  1  0  0  0  0
  2  5  1  0  0  0  0
  5  6  2  0  0  0  0
  5  7  1  0  0  0  0
  7  8  1  0  0  0  0
  7  9  1  0  0  0  0
  9 10  1  0  0  0  0
  9 11  1  0  0  0  0
  9 16  1  0  0  0  0
 11 12  1  0  0  0  0
 11 13  1  0  0  0  0
 11 14  1  0  0  0  0
 14 15  1  0  0  0  0
 16 17  2  0  0  0  0
 16 18  1  0  0  0  0
 18 19  1  0  0  0  0
 18 20  1  0  0  0  0
 20 21  1  0  0  0  0
 20 22  1  0  0  0  0
 20 23  1  0  0  0  0
M  END
$$$$

  -OEChem-01062216093D

 23 22  0     1  0  0  0  0  0999 V2000
   -2.4751   -3.8615    0.9724 H   0  0  0  0  0  0  0  0  0  0  0  0
   -2.5330   -2.8445    0.5739 C   0  0  0  0  0  0  0  0  0  0  0  0
   -3.4042   -2.3464    1.0059 H   0  0  0  0  0  0  0  0  0  0  0  0
   -2.6520   -2.8986   -0.5109 H   0  0  0  0  0  0  0  0  0  0  0  0
   -1.2713   -2.0762    0.9195 C   0  0  0  0  0  0  0  0  0  0  0  0
   -0.3825   -2.6207    1.5522 O   0  0  0  0  0  0  0  0  0  0  0  0
   -1.1302   -0.7688    0.5011 N   0  0  0  0  0  0  0  0  0  0  0  0
   -1.7903   -0.4734   -0.2145 H   0  0  0  0  0  0  0  0  0  0  0  0
    0.1697   -0.0653    0.4959 C   0  0  1  0  0  0  0  0  0  0  0  0
    0.7948   -0.4404    1.3127 H   0  0  0  0  0  0  0  0  0  0  0  0
    0.8634   -0.3903   -0.8327 C   0  0  0  0  0  0  0  0  0  0  0  0
    1.8773    0.0237   -0.8250 H   0  0  0  0  0  0  0  0  0  0  0  0
    0.9510   -1.4746   -0.9581 H   0  0  0  0  0  0  0  0  0  0  0  0
    0.1242    0.1723   -1.9267 O   0  0  0  0  0  0  0  0  0  0  0  0
    0.6464    0.1252   -2.7472 H   0  0  0  0  0  0  0  0  0  0  0  0
    0.0671    1.4576    0.7149 C   0  0  0  0  0  0  0  0  0  0  0  0
    1.0340    2.1873    0.5325 O   0  0  0  0  0  0  0  0  0  0  0  0
   -1.1060    2.0106    1.1977 N   0  0  0  0  0  0  0  0  0  0  0  0
   -1.8423    1.3609    1.4558 H   0  0  0  0  0  0  0  0  0  0  0  0
   -1.2521    3.4220    1.5311 C   0  0  0  0  0  0  0  0  0  0  0  0
   -1.0458    4.0457    0.6548 H   0  0  0  0  0  0  0  0  0  0  0  0
   -2.2730    3.6278    1.8670 H   0  0  0  0  0  0  0  0  0  0  0  0
   -0.5602    3.7002    2.3330 H   0  0  0  0  0  0  0  0  0  0  0  0
  1  2  1  0  0  0  0
  2  3  1  0  0  0  0
  2  4  1  0  0  0  0
  2  5  1  0  0  0  0
  5  6  2  0  0  0  0
  5  7  1  0  0  0  0
  7  8  1  0  0  0  0
  7  9  1  0  0  0  0
  9 10  1  0  0  0  0
  9 11  1  0  0  0  0
  9 16  1  0  0  0  0
 11 12  1  0  0  0  0
 11 13  1  0  0  0  0
 11 14  1  0  0  0  0
 14 15  1  0  0  0  0
 16 17  2  0  0  0  0
 16 18  1  0  0  0  0
 18 19  1  0  0  0  0
 18 20  1  0  0  0  0
 20 21  1  0  0  0  0
 20 22  1  0  0  0  0
 20 23  1  0  0  0  0
M  END
$$$$

  -OEChem-01062216093D

 23 22  0     1  0  0  0  0  0999 V2000
   -2.4850   -3.8460    0.9643 H   0  0  0  0  0  0  0  0  0  0  0  0
   -2.5396   -2.8281    0.5680 C   0  0  0  0  0  0  0  0  0  0  0  0
   -3.4077   -2.3272    1.0029 H   0  0  0  0  0  0  0  0  0  0  0  0
   -2.6615   -2.8794   -0.5166 H   0  0  0  0  0  0  0  0  0  0  0  0
   -1.2738   -2.0656    0.9117 C   0  0  0  0  0  0  0  0  0  0  0  0
   -0.3886   -2.6108    1.5492 O   0  0  0  0  0  0  0  0  0  0  0  0
   -1.1273   -0.7581    0.4963 N   0  0  0  0  0  0  0  0  0  0  0  0
   -1.7949   -0.4506   -0.2074 H   0  0  0  0  0  0  0  0  0  0  0  0
    0.1738   -0.0583    0.4882 C   0  0  1  0  0  0  0  0  0  0  0  0
    0.7992   -0.4324    1.3050 H   0  0  0  0  0  0  0  0  0  0  0  0
    0.8654   -0.3958   -0.8396 C   0  0  0  0  0  0  0  0  0  0  0  0
    1.8800    0.0165   -0.8353 H   0  0  0  0  0  0  0  0  0  0  0  0
    0.9511   -1.4812   -0.9566 H   0  0  0  0  0  0  0  0  0  0  0  0
    0.1285    0.1601   -1.9386 O   0  0  0  0  0  0  0  0  0  0  0  0
    0.6657    0.1414   -2.7503 H   0  0  0  0  0  0  0  0  0  0  0  0
    0.0627    1.4637    0.7117 C   0  0  0  0  0  0  0  0  0  0  0  0
    0.9346    2.2363    0.3320 O   0  0  0  0  0  0  0  0  0  0  0  0
   -0.9771    1.9601    1.4775 N   0  0  0  0  0  0  0  0  0  0  0  0
   -1.6161    1.2775    1.8747 H   0  0  0  0  0  0  0  0  0  0  0  0
   -1.0973    3.3606    1.8632 C   0  0  0  0  0  0  0  0  0  0  0  0
   -1.1351    4.0006    0.9753 H   0  0  0  0  0  0  0  0  0  0  0  0
   -2.0141    3.5172    2.4395 H   0  0  0  0  0  0  0  0  0  0  0  0
   -0.2441    3.6629    2.4795 H   0  0  0  0  0  0  0  0  0  0  0  0
  1  2  1  0  0  0  0
  2  3  1  0  0  0  0
  2  4  1  0  0  0  0
  2  5  1  0  0  0  0
  5  6  2  0  0  0  0
  5  7  1  0  0  0  0
  7  8  1  0  0  0  0
  7  9  1  0  0  0  0
  9 10  1  0  0  0  0
  9 11  1  0  0  0  0
  9 16  1  0  0  0  0
 11 12  1  0  0  0  0
 11 13  1  0  0  0  0
 11 14  1  0  0  0  0
 14 15  1  0  0  0  0
 16 17  2  0  0  0  0
 16 18  1  0  0  0  0
 18 19  1  0  0  0  0
 18 20  1  0  0  0  0
 20 21  1  0  0  0  0
 20 22  1  0  0  0  0
 20 23  1  0  0  0  0
M  END
$$$$

  -OEChem-01062216093D

 23 22  0     1  0  0  0  0  0999 V2000
   -2.4925   -3.8314    0.9646 H   0  0  0  0  0  0  0  0  0  0  0  0
   -2.5422   -2.8167    0.5595 C   0  0  0  0  0  0  0  0  0  0  0  0
   -3.4125   -2.3106    0.9839 H   0  0  0  0  0  0  0  0  0  0  0  0
   -2.6565   -2.8763   -0.5256 H   0  0  0  0  0  0  0  0  0  0  0  0
   -1.2774   -2.0541    0.9059 C   0  0  0  0  0  0  0  0  0  0  0  0
   -0.3922   -2.5994    1.5437 O   0  0  0  0  0  0  0  0  0  0  0  0
   -1.1309   -0.7455    0.4951 N   0  0  0  0  0  0  0  0  0  0  0  0
   -1.8041   -0.4312   -0.2004 H   0  0  0  0  0  0  0  0  0  0  0  0
    0.1697   -0.0472    0.4831 C   0  0  1  0  0  0  0  0  0  0  0  0
    0.7955   -0.4204    1.2999 H   0  0  0  0  0  0  0  0  0  0  0  0
    0.8622   -0.4003   -0.8414 C   0  0  0  0  0  0  0  0  0  0  0  0
    1.8765    0.0128   -0.8383 H   0  0  0  0  0  0  0  0  0  0  0  0
    0.9497   -1.4867   -0.9459 H   0  0  0  0  0  0  0  0  0  0  0  0
    0.1306    0.1419   -1.9505 O   0  0  0  0  0  0  0  0  0  0  0  0
    0.6817    0.1422   -2.7528 H   0  0  0  0  0  0  0  0  0  0  0  0
    0.0529    1.4739    0.7137 C   0  0  0  0  0  0  0  0  0  0  0  0
    0.7830    2.2823    0.1528 O   0  0  0  0  0  0  0  0  0  0  0  0
   -0.7788    1.9268    1.7221 N   0  0  0  0  0  0  0  0  0  0  0  0
   -1.3005    1.2223    2.2361 H   0  0  0  0  0  0  0  0  0  0  0  0
   -0.8568    3.3207    2.1413 C   0  0  0  0  0  0  0  0  0  0  0  0
   -1.1537    3.9576    1.3012 H   0  0  0  0  0  0  0  0  0  0  0  0
   -1.5970    3.4345    2.9390 H   0  0  0  0  0  0  0  0  0  0  0  0
    0.1132    3.6622    2.5180 H   0  0  0  0  0  0  0  0  0  0  0  0
  1  2  1  0  0  0  0
  2  3  1  0  0  0  0
  2  4  1  0  0  0  0
  2  5  1  0  0  0  0
  5  6  2  0  0  0  0
  5  7  1  0  0  0  0
  7  8  1  0  0  0  0
  7  9  1  0  0  0  0
  9 10  1  0  0  0  0
  9 11  1  0  0  0  0
  9 16  1  0  0  0  0
 11 12  1  0  0  0  0
 11 13  1  0  0  0  0
 11 14  1  0  0  0  0
 14 15  1  0  0  0  0
 16 17  2  0  0  0  0
 16 18  1  0  0  0  0
 18 19  1  0  0  0  0
 18 20  1  0  0  0  0
 20 21  1  0  0  0  0
 20 22  1  0  0  0  0
 20 23  1  0  0  0  0
M  END
$$$$

  -OEChem-01062216093D

 23 22  0     1  0  0  0  0  0999 V2000
   -2.4975   -3.8236    0.9303 H   0  0  0  0  0  0  0  0  0  0  0  0
   -2.5551   -2.7955    0.5617 C   0  0  0  0  0  0  0  0  0  0  0  0
   -3.4096   -2.3009    1.0297 H   0  0  0  0  0  0  0  0  0  0  0  0
   -2.7028   -2.8181   -0.5208 H   0  0  0  0  0  0  0  0  0  0  0  0
   -1.2774   -2.0484    0.8947 C   0  0  0  0  0  0  0  0  0  0  0  0
   -0.3879   -2.6059    1.5162 O   0  0  0  0  0  0  0  0  0  0  0  0
   -1.1267   -0.7367    0.4967 N   0  0  0  0  0  0  0  0  0  0  0  0
   -1.8094   -0.4060   -0.1815 H   0  0  0  0  0  0  0  0  0  0  0  0
    0.1746   -0.0424    0.4829 C   0  0  1  0  0  0  0  0  0  0  0  0
    0.8019   -0.4229    1.2955 H   0  0  0  0  0  0  0  0  0  0  0  0
    0.8644   -0.4037   -0.8424 C   0  0  0  0  0  0  0  0  0  0  0  0
    1.8786    0.0098   -0.8398 H   0  0  0  0  0  0  0  0  0  0  0  0
    0.9513   -1.4907   -0.9408 H   0  0  0  0  0  0  0  0  0  0  0  0
    0.1396    0.1317   -1.9592 O   0  0  0  0  0  0  0  0  0  0  0  0
    0.7034    0.1554   -2.7518 H   0  0  0  0  0  0  0  0  0  0  0  0
    0.0592    1.4771    0.7301 C   0  0  0  0  0  0  0  0  0  0  0  0
    0.5904    2.3152    0.0117 O   0  0  0  0  0  0  0  0  0  0  0  0
   -0.5010    1.9006    1.9218 N   0  0  0  0  0  0  0  0  0  0  0  0
   -0.8879    1.1836    2.5296 H   0  0  0  0  0  0  0  0  0  0  0  0
   -0.5673    3.2973    2.3346 C   0  0  0  0  0  0  0  0  0  0  0  0
   -1.1096    3.8912    1.5912 H   0  0  0  0  0  0  0  0  0  0  0  0
   -1.0885    3.3846    3.2928 H   0  0  0  0  0  0  0  0  0  0  0  0
    0.4401    3.7108    2.4497 H   0  0  0  0  0  0  0  0  0  0  0  0
  1  2  1  0  0  0  0
  2  3  1  0  0  0  0
  2  4  1  0  0  0  0
  2  5  1  0  0  0  0
  5  6  2  0  0  0  0
  5  7  1  0  0  0  0
  7  8  1  0  0  0  0
  7  9  1  0  0  0  0
  9 10  1  0  0  0  0
  9 11  1  0  0  0  0
  9 16  1  0  0  0  0
 11 12  1  0  0  0  0
 11 13  1  0  0  0  0
 11 14  1  0  0  0  0
 14 15  1  0  0  0  0
 16 17  2  0  0  0  0
 16 18  1  0  0  0  0
 18 19  1  0  0  0  0
 18 20  1  0  0  0  0
 20 21  1  0  0  0  0
 20 22  1  0  0  0  0
 20 23  1  0  0  0  0
M  END
$$$$

  -OEChem-01062216093D

 23 22  0     1  0  0  0  0  0999 V2000
   -2.5192   -3.8035    0.9371 H   0  0  0  0  0  0  0  0  0  0  0  0
   -2.5691   -2.7771    0.5627 C   0  0  0  0  0  0  0  0  0  0  0  0
   -3.4135   -2.2703    1.0361 H   0  0  0  0  0  0  0  0  0  0  0  0
   -2.7278   -2.8041   -0.5181 H   0  0  0  0  0  0  0  0  0  0  0  0
   -1.2802   -2.0423    0.8794 C   0  0  0  0  0  0  0  0  0  0  0  0
   -0.3840   -2.6105    1.4822 O   0  0  0  0  0  0  0  0  0  0  0  0
   -1.1286   -0.7265    0.4959 N   0  0  0  0  0  0  0  0  0  0  0  0
   -1.8217   -0.3796   -0.1636 H   0  0  0  0  0  0  0  0  0  0  0  0
    0.1724   -0.0343    0.4791 C   0  0  1  0  0  0  0  0  0  0  0  0
    0.7982   -0.4225    1.2887 H   0  0  0  0  0  0  0  0  0  0  0  0
    0.8723   -0.4021   -0.8407 C   0  0  0  0  0  0  0  0  0  0  0  0
    1.8844    0.0156   -0.8301 H   0  0  0  0  0  0  0  0  0  0  0  0
    0.9650   -1.4894   -0.9296 H   0  0  0  0  0  0  0  0  0  0  0  0
    0.1643    0.1191   -1.9739 O   0  0  0  0  0  0  0  0  0  0  0  0
    0.7363    0.1343   -2.7604 H   0  0  0  0  0  0  0  0  0  0  0  0
    0.0608    1.4832    0.7453 C   0  0  0  0  0  0  0  0  0  0  0  0
    0.3122    2.3402   -0.0923 O   0  0  0  0  0  0  0  0  0  0  0  0
   -0.1841    1.8964    2.0429 N   0  0  0  0  0  0  0  0  0  0  0  0
   -0.3829    1.1736    2.7293 H   0  0  0  0  0  0  0  0  0  0  0  0
   -0.2351    3.2953    2.4509 C   0  0  0  0  0  0  0  0  0  0  0  0
   -1.0189    3.8270    1.9013 H   0  0  0  0  0  0  0  0  0  0  0  0
   -0.4522    3.3696    3.5208 H   0  0  0  0  0  0  0  0  0  0  0  0
    0.7250    3.7857    2.2589 H   0  0  0  0  0  0  0  0  0  0  0  0
  1  2  1  0  0  0  0
  2  3  1  0  0  0  0
  2  4  1  0  0  0  0
  2  5  1  0  0  0  0
  5  6  2  0  0  0  0
  5  7  1  0  0  0  0
  7  8  1  0  0  0  0
  7  9  1  0  0  0  0
  9 10  1  0  0  0  0
  9 11  1  0  0  0  0
  9 16  1  0  0  0  0
 11 12  1  0  0  0  0
 11 13  1  0  0  0  0
 11 14  1  0  0  0  0
 14 15  1  0  0  0  0
 16 17  2  0  0  0  0
 16 18  1  0  0  0  0
 18 19  1  0  0  0  0
 18 20  1  0  0  0  0
 20 21  1  0  0  0  0
 20 22  1  0  0  0  0
 20 23  1  0  0  0  0
M  END
$$$$

  -OEChem-01062216093D

 23 22  0     1  0  0  0  0  0999 V2000
   -2.5391   -3.7814    0.8808 H   0  0  0  0  0  0  0  0  0  0  0  0
   -2.5981   -2.7332    0.5748 C   0  0  0  0  0  0  0  0  0  0  0  0
   -3.4098   -2.2505    1.1244 H   0  0  0  0  0  0  0  0  0  0  0  0
   -2.8153   -2.6912   -0.4952 H   0  0  0  0  0  0  0  0  0  0  0  0
   -1.2864   -2.0290    0.8653 C   0  0  0  0  0  0  0  0  0  0  0  0
   -0.3822   -2.6263    1.4274 O   0  0  0  0  0  0  0  0  0  0  0  0
   -1.1181   -0.7112    0.4973 N   0  0  0  0  0  0  0  0  0  0  0  0
   -1.8272   -0.3279   -0.1243 H   0  0  0  0  0  0  0  0  0  0  0  0
    0.1900   -0.0355    0.4731 C   0  0  1  0  0  0  0  0  0  0  0  0
    0.8091   -0.4405    1.2795 H   0  0  0  0  0  0  0  0  0  0  0  0
    0.9033   -0.4020   -0.8401 C   0  0  0  0  0  0  0  0  0  0  0  0
    1.9179    0.0089   -0.8137 H   0  0  0  0  0  0  0  0  0  0  0  0
    0.9897   -1.4902   -0.9262 H   0  0  0  0  0  0  0  0  0  0  0  0
    0.2227    0.1188   -1.9886 O   0  0  0  0  0  0  0  0  0  0  0  0
    0.7795    0.0530   -2.7829 H   0  0  0  0  0  0  0  0  0  0  0  0
    0.0978    1.4796    0.7593 C   0  0  0  0  0  0  0  0  0  0  0  0
   -0.0566    2.3241   -0.1128 O   0  0  0  0  0  0  0  0  0  0  0  0
    0.1919    1.9093    2.0717 N   0  0  0  0  0  0  0  0  0  0  0  0
    0.2443    1.1943    2.7921 H   0  0  0  0  0  0  0  0  0  0  0  0
    0.0832    3.3076    2.4709 C   0  0  0  0  0  0  0  0  0  0  0  0
   -0.8981    3.7093    2.1977 H   0  0  0  0  0  0  0  0  0  0  0  0
    0.2073    3.4026    3.5539 H   0  0  0  0  0  0  0  0  0  0  0  0
    0.8581    3.9070    1.9816 H   0  0  0  0  0  0  0  0  0  0  0  0
  1  2  1  0  0  0  0
  2  3  1  0  0  0  0
  2  4  1  0  0  0  0
  2  5  1  0  0  0  0
  5  6  2  0  0  0  0
  5  7  1  0  0  0  0
  7  8  1  0  0  0  0
  7  9  1  0  0  0  0
  9 10  1  0  0  0  0
  9 11  1  0  0  0  0
  9 16  1  0  0  0  0
 11 12  1  0  0  0  0
 11 13  1  0  0  0  0
 11 14  1  0  0  0  0
 14 15  1  0  0  0  0
 16 17  2  0  0  0  0
 16 18  1  0  0  0  0
 18 19  1  0  0  0  0
 18 20  1  0  0  0  0
 20 21  1  0  0  0  0
 20 22  1  0  0  0  0
 20 23  1  0  0  0  0
M  END
$$$$

  -OEChem-01062216093D

 23 22  0     1  0  0  0  0  0999 V2000
   -2.5973   -3.7295    0.9124 H   0  0  0  0  0  0  0  0  0  0  0  0
   -2.6328   -2.6793    0.6094 C   0  0  0  0  0  0  0  0  0  0  0  0
   -3.4080   -2.1709    1.1879 H   0  0  0  0  0  0  0  0  0  0  0  0
   -2.8873   -2.6283   -0.4521 H   0  0  0  0  0  0  0  0  0  0  0  0
   -1.2886   -2.0193    0.8525 C   0  0  0  0  0  0  0  0  0  0  0  0
   -0.3796   -2.6513    1.3676 O   0  0  0  0  0  0  0  0  0  0  0  0
   -1.0911   -0.7058    0.4858 N   0  0  0  0  0  0  0  0  0  0  0  0
   -1.8216   -0.2709   -0.0742 H   0  0  0  0  0  0  0  0  0  0  0  0
    0.2249   -0.0485    0.4585 C   0  0  1  0  0  0  0  0  0  0  0  0
    0.8334   -0.4653    1.2667 H   0  0  0  0  0  0  0  0  0  0  0  0
    0.9518   -0.3965   -0.8508 C   0  0  0  0  0  0  0  0  0  0  0  0
    1.9705    0.0023   -0.8067 H   0  0  0  0  0  0  0  0  0  0  0  0
    1.0264   -1.4844   -0.9514 H   0  0  0  0  0  0  0  0  0  0  0  0
    0.2901    0.1456   -1.9991 O   0  0  0  0  0  0  0  0  0  0  0  0
    0.8118   -0.0020   -2.8060 H   0  0  0  0  0  0  0  0  0  0  0  0
    0.1403    1.4655    0.7448 C   0  0  0  0  0  0  0  0  0  0  0  0
   -0.4169    2.2443   -0.0182 O   0  0  0  0  0  0  0  0  0  0  0  0
    0.5441    1.9415    1.9807 N   0  0  0  0  0  0  0  0  0  0  0  0
    0.8839    1.2618    2.6548 H   0  0  0  0  0  0  0  0  0  0  0  0
    0.3732    3.3265    2.4034 C   0  0  0  0  0  0  0  0  0  0  0  0
   -0.6891    3.5910    2.4318 H   0  0  0  0  0  0  0  0  0  0  0  0
    0.7931    3.4709    3.4034 H   0  0  0  0  0  0  0  0  0  0  0  0
    0.8873    4.0040    1.7134 H   0  0  0  0  0  0  0  0  0  0  0  0
  1  2  1  0  0  0  0
  2  3  1  0  0  0  0
  2  4  1  0  0  0  0
  2  5  1  0  0  0  0
  5  6  2  0  0  0  0
  5  7  1  0  0  0  0
  7  8  1  0  0  0  0
  7  9  1  0  0  0  0
  9 10  1  0  0  0  0
  9 11  1  0  0  0  0
  9 16  1  0  0  0  0
 11 12  1  0  0  0  0
 11 13  1  0  0  0  0
 11 14  1  0  0  0  0
 14 15  1  0  0  0  0
 16 17  2  0  0  0  0
 16 18  1  0  0  0  0
 18 19  1  0  0  0  0
 18 20  1  0  0  0  0
 20 21  1  0  0  0  0
 20 22  1  0  0  0  0
 20 23  1  0  0  0  0
M  END
$$$$

  -OEChem-01062216093D

 23 22  0     1  0  0  0  0  0999 V2000
   -2.6483   -3.6830    0.9779 H   0  0  0  0  0  0  0  0  0  0  0  0
   -2.6576   -2.6394    0.6512 C   0  0  0  0  0  0  0  0  0  0  0  0
   -3.3951   -2.0911    1.2424 H   0  0  0  0  0  0  0  0  0  0  0  0
   -2.9453   -2.6025   -0.4023 H   0  0  0  0  0  0  0  0  0  0  0  0
   -1.2842   -2.0218    0.8344 C   0  0  0  0  0  0  0  0  0  0  0  0
   -0.3717   -2.6817    1.3074 O   0  0  0  0  0  0  0  0  0  0  0  0
   -1.0644   -0.7141    0.4619 N   0  0  0  0  0  0  0  0  0  0  0  0
   -1.8137   -0.2321   -0.0317 H   0  0  0  0  0  0  0  0  0  0  0  0
    0.2545   -0.0639    0.4432 C   0  0  1  0  0  0  0  0  0  0  0  0
    0.8528   -0.4833    1.2577 H   0  0  0  0  0  0  0  0  0  0  0  0
    0.9921   -0.3902   -0.8639 C   0  0  0  0  0  0  0  0  0  0  0  0
    2.0127    0.0018   -0.8065 H   0  0  0  0  0  0  0  0  0  0  0  0
    1.0605   -1.4766   -0.9832 H   0  0  0  0  0  0  0  0  0  0  0  0
    0.3374    0.1753   -2.0044 O   0  0  0  0  0  0  0  0  0  0  0  0
    0.8244   -0.0237   -2.8221 H   0  0  0  0  0  0  0  0  0  0  0  0
    0.1617    1.4506    0.7174 C   0  0  0  0  0  0  0  0  0  0  0  0
   -0.6529    2.1530    0.1299 O   0  0  0  0  0  0  0  0  0  0  0  0
    0.8239    1.9905    1.8073 N   0  0  0  0  0  0  0  0  0  0  0  0
    1.3884    1.3625    2.3716 H   0  0  0  0  0  0  0  0  0  0  0  0
    0.6413    3.3659    2.2563 C   0  0  0  0  0  0  0  0  0  0  0  0
   -0.3970    3.5356    2.5604 H   0  0  0  0  0  0  0  0  0  0  0  0
    1.2907    3.5737    3.1122 H   0  0  0  0  0  0  0  0  0  0  0  0
    0.8934    4.0680    1.4545 H   0  0  0  0  0  0  0  0  0  0  0  0
  1  2  1  0  0  0  0
  2  3  1  0  0  0  0
  2  4  1  0  0  0  0
  2  5  1  0  0  0  0
  5  6  2  0  0  0  0
  5  7  1  0  0  0  0
  7  8  1  0  0  0  0
  7  9  1  0  0  0  0
  9 10  1  0  0  0  0
  9 11  1  0  0  0  0
  9 16  1  0  0  0  0
 11 12  1  0  0  0  0
 11 13  1  0  0  0  0
 11 14  1  0  0  0  0
 14 15  1  0  0  0  0
 16 17  2  0  0  0  0
 16 18  1  0  0  0  0
 18 19  1  0  0  0  0
 18 20  1  0  0  0  0
 20 21  1  0  0  0  0
 20 22  1  0  0  0  0
 20 23  1  0  0  0  0
M  END
$$$$

  -OEChem-01062216093D

 23 22  0     1  0  0  0  0  0999 V2000
   -2.6653   -3.6789    1.0034 H   0  0  0  0  0  0  0  0  0  0  0  0
   -2.6714   -2.6345    0.6791 C   0  0  0  0  0  0  0  0  0  0  0  0
   -3.3778   -2.0768    1.2986 H   0  0  0  0  0  0  0  0  0  0  0  0
   -2.9969   -2.5909   -0.3630 H   0  0  0  0  0  0  0  0  0  0  0  0
   -1.2835   -2.0375    0.8121 C   0  0  0  0  0  0  0  0  0  0  0  0
   -0.3627   -2.7142    1.2435 O   0  0  0  0  0  0  0  0  0  0  0  0
   -1.0574   -0.7316    0.4384 N   0  0  0  0  0  0  0  0  0  0  0  0
   -1.8263   -0.2125    0.0175 H   0  0  0  0  0  0  0  0  0  0  0  0
    0.2590   -0.0760    0.4393 C   0  0  1  0  0  0  0  0  0  0  0  0
    0.8469   -0.4926    1.2626 H   0  0  0  0  0  0  0  0  0  0  0  0
    1.0124   -0.3788   -0.8630 C   0  0  0  0  0  0  0  0  0  0  0  0
    2.0315    0.0145   -0.7910 H   0  0  0  0  0  0  0  0  0  0  0  0
    1.0838   -1.4631   -0.9991 H   0  0  0  0  0  0  0  0  0  0  0  0
    0.3620    0.2040   -1.9975 O   0  0  0  0  0  0  0  0  0  0  0  0
    0.8411   -0.0009   -2.8185 H   0  0  0  0  0  0  0  0  0  0  0  0
    0.1548    1.4387    0.7042 C   0  0  0  0  0  0  0  0  0  0  0  0
   -0.8070    2.0824    0.2978 O   0  0  0  0  0  0  0  0  0  0  0  0
    1.0239    2.0447    1.5955 N   0  0  0  0  0  0  0  0  0  0  0  0
    1.7503    1.4697    2.0116 H   0  0  0  0  0  0  0  0  0  0  0  0
    0.8938    3.4330    2.0212 C   0  0  0  0  0  0  0  0  0  0  0  0
   -0.0489    3.5827    2.5578 H   0  0  0  0  0  0  0  0  0  0  0  0
    1.7185    3.7031    2.6876 H   0  0  0  0  0  0  0  0  0  0  0  0
    0.9168    4.1031    1.1553 H   0  0  0  0  0  0  0  0  0  0  0  0
  1  2  1  0  0  0  0
  2  3  1  0  0  0  0
  2  4  1  0  0  0  0
  2  5  1  0  0  0  0
  5  6  2  0  0  0  0
  5  7  1  0  0  0  0
  7  8  1  0  0  0  0
  7  9  1  0  0  0  0
  9 10  1  0  0  0  0
  9 11  1  0  0  0  0
  9 16  1  0  0  0  0
 11 12  1  0  0  0  0
 11 13  1  0  0  0  0
 11 14  1  0  0  0  0
 14 15  1  0  0  0  0
 16 17  2  0  0  0  0
 16 18  1  0  0  0  0
 18 19  1  0  0  0  0
 18 20  1  0  0  0  0
 20 21  1  0  0  0  0
 20 22  1  0  0  0  0
 20 23  1  0  0  0  0
M  END
$$$$

  -OEChem-01062216093D

 23 22  0     1  0  0  0  0  0999 V2000
   -2.6727   -3.6818    1.0129 H   0  0  0  0  0  0  0  0  0  0  0  0
   -2.6786   -2.6341    0.7001 C   0  0  0  0  0  0  0  0  0  0  0  0
   -3.3550   -2.0750    1.3512 H   0  0  0  0  0  0  0  0  0  0  0  0
   -3.0421   -2.5753   -0.3286 H   0  0  0  0  0  0  0  0  0  0  0  0
   -1.2796   -2.0544    0.7877 C   0  0  0  0  0  0  0  0  0  0  0  0
   -0.3507   -2.7449    1.1781 O   0  0  0  0  0  0  0  0  0  0  0  0
   -1.0521   -0.7485    0.4160 N   0  0  0  0  0  0  0  0  0  0  0  0
   -1.8399   -0.1974    0.0789 H   0  0  0  0  0  0  0  0  0  0  0  0
    0.2600   -0.0839    0.4383 C   0  0  1  0  0  0  0  0  0  0  0  0
    0.8408   -0.4965    1.2688 H   0  0  0  0  0  0  0  0  0  0  0  0
    1.0262   -0.3681   -0.8598 C   0  0  0  0  0  0  0  0  0  0  0  0
    2.0436    0.0274   -0.7765 H   0  0  0  0  0  0  0  0  0  0  0  0
    1.1012   -1.4506   -1.0080 H   0  0  0  0  0  0  0  0  0  0  0  0
    0.3781    0.2261   -1.9900 O   0  0  0  0  0  0  0  0  0  0  0  0
    0.8395   -0.0007   -2.8156 H   0  0  0  0  0  0  0  0  0  0  0  0
    0.1430    1.4306    0.6978 C   0  0  0  0  0  0  0  0  0  0  0  0
   -0.9127    2.0214    0.4910 O   0  0  0  0  0  0  0  0  0  0  0  0
    1.1640    2.1027    1.3477 N   0  0  0  0  0  0  0  0  0  0  0  0
    2.0069    1.5816    1.5685 H   0  0  0  0  0  0  0  0  0  0  0  0
    1.0835    3.5081    1.7273 C   0  0  0  0  0  0  0  0  0  0  0  0
    0.2678    3.6665    2.4405 H   0  0  0  0  0  0  0  0  0  0  0  0
    2.0193    3.8273    2.1960 H   0  0  0  0  0  0  0  0  0  0  0  0
    0.9083    4.1342    0.8461 H   0  0  0  0  0  0  0  0  0  0  0  0
  1  2  1  0  0  0  0
  2  3  1  0  0  0  0
  2  4  1  0  0  0  0
  2  5  1  0  0  0  0
  5  6  2  0  0  0  0
  5  7  1  0  0  0  0
  7  8  1  0  0  0  0
  7  9  1  0  0  0  0
  9 10  1  0  0  0  0
  9 11  1  0  0  0  0
  9 16  1  0  0  0  0
 11 12  1  0  0  0  0
 11 13  1  0  0  0  0
 11 14  1  0  0  0  0
 14 15  1  0  0  0  0
 16 17  2  0  0  0  0
 16 18  1  0  0  0  0
 18 19  1  0  0  0  0
 18 20  1  0  0  0  0
 20 21  1  0  0  0  0
 20 22  1  0  0  0  0
 20 23  1  0  0  0  0
M  END
$$$$

  -OEChem-01062216093D

 23 22  0     1  0  0  0  0  0999 V2000
   -2.6714   -3.6858    1.0118 H   0  0  0  0  0  0  0  0  0  0  0  0
   -2.6794   -2.6327    0.7172 C   0  0  0  0  0  0  0  0  0  0  0  0
   -3.3258   -2.0792    1.4024 H   0  0  0  0  0  0  0  0  0  0  0  0
   -3.0808   -2.5531   -0.2959 H   0  0  0  0  0  0  0  0  0  0  0  0
   -1.2732   -2.0664    0.7623 C   0  0  0  0  0  0  0  0  0  0  0  0
   -0.3381   -2.7689    1.1148 O   0  0  0  0  0  0  0  0  0  0  0  0
   -1.0467   -0.7588    0.3967 N   0  0  0  0  0  0  0  0  0  0  0  0
   -1.8478   -0.1836    0.1408 H   0  0  0  0  0  0  0  0  0  0  0  0
    0.2633   -0.0902    0.4396 C   0  0  1  0  0  0  0  0  0  0  0  0
    0.8402   -0.5028    1.2731 H   0  0  0  0  0  0  0  0  0  0  0  0
    1.0322   -0.3633   -0.8597 C   0  0  0  0  0  0  0  0  0  0  0  0
    2.0509    0.0277   -0.7738 H   0  0  0  0  0  0  0  0  0  0  0  0
    1.1046   -1.4445   -1.0180 H   0  0  0  0  0  0  0  0  0  0  0  0
    0.3838    0.2432   -1.9836 O   0  0  0  0  0  0  0  0  0  0  0  0
    0.8203   -0.0098   -2.8153 H   0  0  0  0  0  0  0  0  0  0  0  0
    0.1379    1.4239    0.7012 C   0  0  0  0  0  0  0  0  0  0  0  0
   -0.9623    1.9687    0.6991 O   0  0  0  0  0  0  0  0  0  0  0  0
    1.2470    2.1612    1.0795 N   0  0  0  0  0  0  0  0  0  0  0  0
    2.1461    1.6897    1.0902 H   0  0  0  0  0  0  0  0  0  0  0  0
    1.1919    3.5835    1.3938 C   0  0  0  0  0  0  0  0  0  0  0  0
    0.5086    3.7656    2.2301 H   0  0  0  0  0  0  0  0  0  0  0  0
    2.1848    3.9473    1.6747 H   0  0  0  0  0  0  0  0  0  0  0  0
    0.8464    4.1544    0.5255 H   0  0  0  0  0  0  0  0  0  0  0  0
  1  2  1  0  0  0  0
  2  3  1  0  0  0  0
  2  4  1  0  0  0  0
  2  5  1  0  0  0  0
  5  6  2  0  0  0  0
  5  7  1  0  0  0  0
  7  8  1  0  0  0  0
  7  9  1  0  0  0  0
  9 10  1  0  0  0  0
  9 11  1  0  0  0  0
  9 16  1  0  0  0  0
 11 12  1  0  0  0  0
 11 13  1  0  0  0  0
 11 14  1  0  0  0  0
 14 15  1  0  0  0  0
 16 17  2  0  0  0  0
 16 18  1  0  0  0  0
 18 19  1  0  0  0  0
 18 20  1  0  0  0  0
 20 21  1  0  0  0  0
 20 22  1  0  0  0  0
 20 23  1  0  0  0  0
M  END
$$$$

  -OEChem-01062216093D

 23 22  0     1  0  0  0  0  0999 V2000
   -2.6931   -3.6404    1.0869 H   0  0  0  0  0  0  0  0  0  0  0  0
   -2.6933   -2.5889    0.7872 C   0  0  0  0  0  0  0  0  0  0  0  0
   -3.2406   -2.0095    1.5349 H   0  0  0  0  0  0  0  0  0  0  0  0
   -3.1985   -2.4970   -0.1773 H   0  0  0  0  0  0  0  0  0  0  0  0
   -1.2698   -2.0769    0.6762 C   0  0  0  0  0  0  0  0  0  0  0  0
   -0.3302   -2.8276    0.8901 O   0  0  0  0  0  0  0  0  0  0  0  0
   -1.0383   -0.7655    0.3251 N   0  0  0  0  0  0  0  0  0  0  0  0
   -1.8472   -0.1481    0.2794 H   0  0  0  0  0  0  0  0  0  0  0  0
    0.2762   -0.1065    0.4125 C   0  0  1  0  0  0  0  0  0  0  0  0
    0.9358   -0.6880    1.0638 H   0  0  0  0  0  0  0  0  0  0  0  0
    0.9083   -0.0513   -0.9843 C   0  0  0  0  0  0  0  0  0  0  0  0
    1.9368    0.3160   -0.9126 H   0  0  0  0  0  0  0  0  0  0  0  0
    0.9470   -1.0633   -1.4012 H   0  0  0  0  0  0  0  0  0  0  0  0
    0.1580    0.7980   -1.8607 O   0  0  0  0  0  0  0  0  0  0  0  0
    0.4960    0.7431   -2.7714 H   0  0  0  0  0  0  0  0  0  0  0  0
    0.1761    1.2994    1.0405 C   0  0  0  0  0  0  0  0  0  0  0  0
   -0.8995    1.7159    1.4609 O   0  0  0  0  0  0  0  0  0  0  0  0
    1.3058    2.0817    1.2101 N   0  0  0  0  0  0  0  0  0  0  0  0
    2.1780    1.7371    0.8220 H   0  0  0  0  0  0  0  0  0  0  0  0
    1.2714    3.4192    1.7891 C   0  0  0  0  0  0  0  0  0  0  0  0
    0.8551    3.3886    2.8016 H   0  0  0  0  0  0  0  0  0  0  0  0
    2.2825    3.8336    1.8453 H   0  0  0  0  0  0  0  0  0  0  0  0
    0.6571    4.0861    1.1751 H   0  0  0  0  0  0  0  0  0  0  0  0
  1  2  1  0  0  0  0
  2  3  1  0  0  0  0
  2  4  1  0  0  0  0
  2  5  1  0  0  0  0
  5  6  2  0  0  0  0
  5  7  1  0  0  0  0
  7  8  1  0  0  0  0
  7  9  1  0  0  0  0
  9 10  1  0  0  0  0
  9 11  1  0  0  0  0
  9 16  1  0  0  0  0
 11 12  1  0  0  0  0
 11 13  1  0  0  0  0
 11 14  1  0  0  0  0
 14 15  1  0  0  0  0
 16 17  2  0  0  0  0
 16 18  1  0  0  0  0
 18 19  1  0  0  0  0
 18 20  1  0  0  0  0
 20 21  1  0  0  0  0
 20 22  1  0  0  0  0
 20 23  1  0  0  0  0
M  END
$$$$

  -OEChem-01062216093D

 23 22  0     1  0  0  0  0  0999 V2000
   -2.6932   -3.6222    1.1162 H   0  0  0  0  0  0  0  0  0  0  0  0
   -2.6926   -2.5743    0.8034 C   0  0  0  0  0  0  0  0  0  0  0  0
   -3.2191   -1.9821    1.5558 H   0  0  0  0  0  0  0  0  0  0  0  0
   -3.2180   -2.4897   -0.1508 H   0  0  0  0  0  0  0  0  0  0  0  0
   -1.2683   -2.0742    0.6551 C   0  0  0  0  0  0  0  0  0  0  0  0
   -0.3304   -2.8380    0.8246 O   0  0  0  0  0  0  0  0  0  0  0  0
   -1.0360   -0.7602    0.3138 N   0  0  0  0  0  0  0  0  0  0  0  0
   -1.8413   -0.1374    0.3269 H   0  0  0  0  0  0  0  0  0  0  0  0
    0.2847   -0.1125    0.4056 C   0  0  1  0  0  0  0  0  0  0  0  0
    0.9398   -0.6999    1.0563 H   0  0  0  0  0  0  0  0  0  0  0  0
    0.9194   -0.0644   -0.9911 C   0  0  0  0  0  0  0  0  0  0  0  0
    1.9530    0.2886   -0.9208 H   0  0  0  0  0  0  0  0  0  0  0  0
    0.9455   -1.0774   -1.4067 H   0  0  0  0  0  0  0  0  0  0  0  0
    0.1780    0.7915   -1.8688 O   0  0  0  0  0  0  0  0  0  0  0  0
    0.4944    0.7064   -2.7852 H   0  0  0  0  0  0  0  0  0  0  0  0
    0.1877    1.2884    1.0482 C   0  0  0  0  0  0  0  0  0  0  0  0
   -0.8188    1.6063    1.6746 O   0  0  0  0  0  0  0  0  0  0  0  0
    1.2295    2.1963    0.9613 N   0  0  0  0  0  0  0  0  0  0  0  0
    1.9939    1.9623    0.3358 H   0  0  0  0  0  0  0  0  0  0  0  0
    1.1485    3.5527    1.4899 C   0  0  0  0  0  0  0  0  0  0  0  0
    0.9137    3.5347    2.5595 H   0  0  0  0  0  0  0  0  0  0  0  0
    2.1045    4.0685    1.3575 H   0  0  0  0  0  0  0  0  0  0  0  0
    0.3713    4.1207    0.9677 H   0  0  0  0  0  0  0  0  0  0  0  0
  1  2  1  0  0  0  0
  2  3  1  0  0  0  0
  2  4  1  0  0  0  0
  2  5  1  0  0  0  0
  5  6  2  0  0  0  0
  5  7  1  0  0  0  0
  7  8  1  0  0  0  0
  7  9  1  0  0  0  0
  9 10  1  0  0  0  0
  9 11  1  0  0  0  0
  9 16  1  0  0  0  0
 11 12  1  0  0  0  0
 11 13  1  0  0  0  0
 11 14  1  0  0  0  0
 14 15  1  0  0  0  0
 16 17  2  0  0  0  0
 16 18  1  0  0  0  0
 18 19  1  0  0  0  0
 18 20  1  0  0  0  0
 20 21  1  0  0  0  0
 20 22  1  0  0  0  0
 20 23  1  0  0  0  0
M  END
$$$$

  -OEChem-01062216093D

 23 22  0     1  0  0  0  0  0999 V2000
   -2.6907   -3.6071    1.1332 H   0  0  0  0  0  0  0  0  0  0  0  0
   -2.6920   -2.5599    0.8183 C   0  0  0  0  0  0  0  0  0  0  0  0
   -3.2029   -1.9645    1.5790 H   0  0  0  0  0  0  0  0  0  0  0  0
   -3.2344   -2.4759   -0.1264 H   0  0  0  0  0  0  0  0  0  0  0  0
   -1.2687   -2.0652    0.6434 C   0  0  0  0  0  0  0  0  0  0  0  0
   -0.3315   -2.8357    0.7838 O   0  0  0  0  0  0  0  0  0  0  0  0
   -1.0375   -0.7500    0.3039 N   0  0  0  0  0  0  0  0  0  0  0  0
   -1.8414   -0.1276    0.3454 H   0  0  0  0  0  0  0  0  0  0  0  0
    0.2877   -0.1103    0.3948 C   0  0  1  0  0  0  0  0  0  0  0  0
    0.9364   -0.6987    1.0514 H   0  0  0  0  0  0  0  0  0  0  0  0
    0.9376   -0.0794   -0.9958 C   0  0  0  0  0  0  0  0  0  0  0  0
    1.9741    0.2636   -0.9171 H   0  0  0  0  0  0  0  0  0  0  0  0
    0.9592   -1.0975   -1.3994 H   0  0  0  0  0  0  0  0  0  0  0  0
    0.2139    0.7722   -1.8931 O   0  0  0  0  0  0  0  0  0  0  0  0
    0.5108    0.6381   -2.8106 H   0  0  0  0  0  0  0  0  0  0  0  0
    0.1944    1.2887    1.0429 C   0  0  0  0  0  0  0  0  0  0  0  0
   -0.6868    1.5170    1.8652 O   0  0  0  0  0  0  0  0  0  0  0  0
    1.0786    2.3035    0.7187 N   0  0  0  0  0  0  0  0  0  0  0  0
    1.6442    2.1538   -0.1118 H   0  0  0  0  0  0  0  0  0  0  0  0
    0.9479    3.6617    1.2319 C   0  0  0  0  0  0  0  0  0  0  0  0
    0.9497    3.6607    2.3272 H   0  0  0  0  0  0  0  0  0  0  0  0
    1.7851    4.2771    0.8890 H   0  0  0  0  0  0  0  0  0  0  0  0
    0.0152    4.1156    0.8811 H   0  0  0  0  0  0  0  0  0  0  0  0
  1  2  1  0  0  0  0
  2  3  1  0  0  0  0
  2  4  1  0  0  0  0
  2  5  1  0  0  0  0
  5  6  2  0  0  0  0
  5  7  1  0  0  0  0
  7  8  1  0  0  0  0
  7  9  1  0  0  0  0
  9 10  1  0  0  0  0
  9 11  1  0  0  0  0
  9 16  1  0  0  0  0
 11 12  1  0  0  0  0
 11 13  1  0  0  0  0
 11 14  1  0  0  0  0
 14 15  1  0  0  0  0
 16 17  2  0  0  0  0
 16 18  1  0  0  0  0
 18 19  1  0  0  0  0
 18 20  1  0  0  0  0
 20 21  1  0  0  0  0
 20 22  1  0  0  0  0
 20 23  1  0  0  0  0
M  END
$$$$

  -OEChem-01062216093D

 23 22  0     1  0  0  0  0  0999 V2000
   -2.6851   -3.6003    1.1453 H   0  0  0  0  0  0  0  0  0  0  0  0
   -2.6896   -2.5542    0.8268 C   0  0  0  0  0  0  0  0  0  0  0  0
   -3.1971   -1.9572    1.5886 H   0  0  0  0  0  0  0  0  0  0  0  0
   -3.2369   -2.4740   -0.1153 H   0  0  0  0  0  0  0  0  0  0  0  0
   -1.2679   -2.0584    0.6429 C   0  0  0  0  0  0  0  0  0  0  0  0
   -0.3302   -2.8292    0.7763 O   0  0  0  0  0  0  0  0  0  0  0  0
   -1.0394   -0.7429    0.3011 N   0  0  0  0  0  0  0  0  0  0  0  0
   -1.8465   -0.1254    0.3300 H   0  0  0  0  0  0  0  0  0  0  0  0
    0.2868   -0.1037    0.3873 C   0  0  1  0  0  0  0  0  0  0  0  0
    0.9317   -0.6892    1.0505 H   0  0  0  0  0  0  0  0  0  0  0  0
    0.9492   -0.0885   -0.9987 C   0  0  0  0  0  0  0  0  0  0  0  0
    1.9847    0.2560   -0.9111 H   0  0  0  0  0  0  0  0  0  0  0  0
    0.9756   -1.1115   -1.3892 H   0  0  0  0  0  0  0  0  0  0  0  0
    0.2386    0.7518   -1.9182 O   0  0  0  0  0  0  0  0  0  0  0  0
    0.5303    0.5822   -2.8321 H   0  0  0  0  0  0  0  0  0  0  0  0
    0.1950    1.2952    1.0346 C   0  0  0  0  0  0  0  0  0  0  0  0
   -0.5130    1.4557    2.0222 O   0  0  0  0  0  0  0  0  0  0  0  0
    0.8583    2.3889    0.5074 N   0  0  0  0  0  0  0  0  0  0  0  0
    1.1948    2.2716   -0.4460 H   0  0  0  0  0  0  0  0  0  0  0  0
    0.6858    3.7429    1.0195 C   0  0  0  0  0  0  0  0  0  0  0  0
    0.9356    3.7852    2.0850 H   0  0  0  0  0  0  0  0  0  0  0  0
    1.3444    4.4348    0.4860 H   0  0  0  0  0  0  0  0  0  0  0  0
   -0.3493    4.0743    0.8867 H   0  0  0  0  0  0  0  0  0  0  0  0
  1  2  1  0  0  0  0
  2  3  1  0  0  0  0
  2  4  1  0  0  0  0
  2  5  1  0  0  0  0
  5  6  2  0  0  0  0
  5  7  1  0  0  0  0
  7  8  1  0  0  0  0
  7  9  1  0  0  0  0
  9 10  1  0  0  0  0
  9 11  1  0  0  0  0
  9 16  1  0  0  0  0
 11 12  1  0  0  0  0
 11 13  1  0  0  0  0
 11 14  1  0  0  0  0
 14 15  1  0  0  0  0
 16 17  2  0  0  0  0
 16 18  1  0  0  0  0
 18 19  1  0  0  0  0
 18 20  1  0  0  0  0
 20 21  1  0  0  0  0
 20 22  1  0  0  0  0
 20 23  1  0  0  0  0
M  END
$$$$

  -OEChem-01062216093D

 23 22  0     1  0  0  0  0  0999 V2000
   -2.6790   -3.6074    1.1312 H   0  0  0  0  0  0  0  0  0  0  0  0
   -2.6849   -2.5587    0.8211 C   0  0  0  0  0  0  0  0  0  0  0  0
   -3.2041   -1.9707    1.5820 H   0  0  0  0  0  0  0  0  0  0  0  0
   -3.2221   -2.4736   -0.1265 H   0  0  0  0  0  0  0  0  0  0  0  0
   -1.2635   -2.0545    0.6577 C   0  0  0  0  0  0  0  0  0  0  0  0
   -0.3237   -2.8201    0.8032 O   0  0  0  0  0  0  0  0  0  0  0  0
   -1.0389   -0.7389    0.3128 N   0  0  0  0  0  0  0  0  0  0  0  0
   -1.8523   -0.1300    0.2984 H   0  0  0  0  0  0  0  0  0  0  0  0
    0.2849   -0.0937    0.3890 C   0  0  1  0  0  0  0  0  0  0  0  0
    0.9335   -0.6750    1.0527 H   0  0  0  0  0  0  0  0  0  0  0  0
    0.9434   -0.0941   -1.0002 C   0  0  0  0  0  0  0  0  0  0  0  0
    1.9769    0.2585   -0.9166 H   0  0  0  0  0  0  0  0  0  0  0  0
    0.9759   -1.1225   -1.3754 H   0  0  0  0  0  0  0  0  0  0  0  0
    0.2322    0.7296   -1.9366 O   0  0  0  0  0  0  0  0  0  0  0  0
    0.5309    0.5444   -2.8456 H   0  0  0  0  0  0  0  0  0  0  0  0
    0.1990    1.3062    1.0333 C   0  0  0  0  0  0  0  0  0  0  0  0
   -0.2970    1.4261    2.1467 O   0  0  0  0  0  0  0  0  0  0  0  0
    0.5903    2.4457    0.3549 N   0  0  0  0  0  0  0  0  0  0  0  0
    0.7450    2.3183   -0.6449 H   0  0  0  0  0  0  0  0  0  0  0  0
    0.3716    3.7939    0.8640 C   0  0  0  0  0  0  0  0  0  0  0  0
    0.8483    3.9162    1.8425 H   0  0  0  0  0  0  0  0  0  0  0  0
    0.8018    4.5302    0.1784 H   0  0  0  0  0  0  0  0  0  0  0  0
   -0.6996    3.9968    0.9661 H   0  0  0  0  0  0  0  0  0  0  0  0
  1  2  1  0  0  0  0
  2  3  1  0  0  0  0
  2  4  1  0  0  0  0
  2  5  1  0  0  0  0
  5  6  2  0  0  0  0
  5  7  1  0  0  0  0
  7  8  1  0  0  0  0
  7  9  1  0  0  0  0
  9 10  1  0  0  0  0
  9 11  1  0  0  0  0
  9 16  1  0  0  0  0
 11 12  1  0  0  0  0
 11 13  1  0  0  0  0
 11 14  1  0  0  0  0
 14 15  1  0  0  0  0
 16 17  2  0  0  0  0
 16 18  1  0  0  0  0
 18 19  1  0  0  0  0
 18 20  1  0  0  0  0
 20 21  1  0  0  0  0
 20 22  1  0  0  0  0
 20 23  1  0  0  0  0
M  END
$$$$

  -OEChem-01062216093D

 23 22  0     1  0  0  0  0  0999 V2000
   -2.6626   -3.6339    1.1159 H   0  0  0  0  0  0  0  0  0  0  0  0
   -2.6761   -2.5862    0.8028 C   0  0  0  0  0  0  0  0  0  0  0  0
   -3.2334   -2.0059    1.5421 H   0  0  0  0  0  0  0  0  0  0  0  0
   -3.1795   -2.5135   -0.1641 H   0  0  0  0  0  0  0  0  0  0  0  0
   -1.2587   -2.0572    0.6905 C   0  0  0  0  0  0  0  0  0  0  0  0
   -0.3127   -2.8053    0.8778 O   0  0  0  0  0  0  0  0  0  0  0  0
   -1.0440   -0.7419    0.3369 N   0  0  0  0  0  0  0  0  0  0  0  0
   -1.8655   -0.1523    0.2412 H   0  0  0  0  0  0  0  0  0  0  0  0
    0.2723   -0.0797    0.3986 C   0  0  1  0  0  0  0  0  0  0  0  0
    0.9313   -0.6510    1.0611 H   0  0  0  0  0  0  0  0  0  0  0  0
    0.9169   -0.0935   -0.9979 C   0  0  0  0  0  0  0  0  0  0  0  0
    1.9452    0.2757   -0.9257 H   0  0  0  0  0  0  0  0  0  0  0  0
    0.9626   -1.1276   -1.3565 H   0  0  0  0  0  0  0  0  0  0  0  0
    0.1927    0.7058   -1.9476 O   0  0  0  0  0  0  0  0  0  0  0  0
    0.5192    0.5341   -2.8500 H   0  0  0  0  0  0  0  0  0  0  0  0
    0.1891    1.3247    1.0317 C   0  0  0  0  0  0  0  0  0  0  0  0
   -0.0530    1.4356    2.2264 O   0  0  0  0  0  0  0  0  0  0  0  0
    0.2712    2.4712    0.2647 N   0  0  0  0  0  0  0  0  0  0  0  0
    0.2930    2.3226   -0.7449 H   0  0  0  0  0  0  0  0  0  0  0  0
    0.0438    3.8134    0.7845 C   0  0  0  0  0  0  0  0  0  0  0  0
    0.7257    4.0238    1.6152 H   0  0  0  0  0  0  0  0  0  0  0  0
    0.2186    4.5567    0.0006 H   0  0  0  0  0  0  0  0  0  0  0  0
   -0.9868    3.9170    1.1396 H   0  0  0  0  0  0  0  0  0  0  0  0
  1  2  1  0  0  0  0
  2  3  1  0  0  0  0
  2  4  1  0  0  0  0
  2  5  1  0  0  0  0
  5  6  2  0  0  0  0
  5  7  1  0  0  0  0
  7  8  1  0  0  0  0
  7  9  1  0  0  0  0
  9 10  1  0  0  0  0
  9 11  1  0  0  0  0
  9 16  1  0  0  0  0
 11 12  1  0  0  0  0
 11 13  1  0  0  0  0
 11 14  1  0  0  0  0
 14 15  1  0  0  0  0
 16 17  2  0  0  0  0
 16 18  1  0  0  0  0
 18 19  1  0  0  0  0
 18 20  1  0  0  0  0
 20 21  1  0  0  0  0
 20 22  1  0  0  0  0
 20 23  1  0  0  0  0
M  END
$$$$

  -OEChem-01062216093D

 23 22  0     1  0  0  0  0  0999 V2000
   -2.6402   -3.6791    1.0901 H   0  0  0  0  0  0  0  0  0  0  0  0
   -2.6655   -2.6296    0.7836 C   0  0  0  0  0  0  0  0  0  0  0  0
   -3.2551   -2.0661    1.5109 H   0  0  0  0  0  0  0  0  0  0  0  0
   -3.1430   -2.5603   -0.1966 H   0  0  0  0  0  0  0  0  0  0  0  0
   -1.2563   -2.0718    0.7157 C   0  0  0  0  0  0  0  0  0  0  0  0
   -0.3030   -2.7975    0.9469 O   0  0  0  0  0  0  0  0  0  0  0  0
   -1.0567   -0.7561    0.3540 N   0  0  0  0  0  0  0  0  0  0  0  0
   -1.8838   -0.1928    0.1814 H   0  0  0  0  0  0  0  0  0  0  0  0
    0.2475   -0.0702    0.4137 C   0  0  1  0  0  0  0  0  0  0  0  0
    0.9160   -0.6280    1.0785 H   0  0  0  0  0  0  0  0  0  0  0  0
    0.8920   -0.0797   -0.9828 C   0  0  0  0  0  0  0  0  0  0  0  0
    1.9126    0.3108   -0.9110 H   0  0  0  0  0  0  0  0  0  0  0  0
    0.9592   -1.1144   -1.3358 H   0  0  0  0  0  0  0  0  0  0  0  0
    0.1550    0.7008   -1.9389 O   0  0  0  0  0  0  0  0  0  0  0  0
    0.5144    0.5604   -2.8342 H   0  0  0  0  0  0  0  0  0  0  0  0
    0.1427    1.3373    1.0350 C   0  0  0  0  0  0  0  0  0  0  0  0
    0.1738    1.4715    2.2507 O   0  0  0  0  0  0  0  0  0  0  0  0
   -0.0981    2.4501    0.2528 N   0  0  0  0  0  0  0  0  0  0  0  0
   -0.1526    2.2848   -0.7532 H   0  0  0  0  0  0  0  0  0  0  0  0
   -0.2766    3.7976    0.7771 C   0  0  0  0  0  0  0  0  0  0  0  0
    0.6015    4.1040    1.3555 H   0  0  0  0  0  0  0  0  0  0  0  0
   -0.4134    4.5073   -0.0444 H   0  0  0  0  0  0  0  0  0  0  0  0
   -1.1587    3.8422    1.4244 H   0  0  0  0  0  0  0  0  0  0  0  0
  1  2  1  0  0  0  0
  2  3  1  0  0  0  0
  2  4  1  0  0  0  0
  2  5  1  0  0  0  0
  5  6  2  0  0  0  0
  5  7  1  0  0  0  0
  7  8  1  0  0  0  0
  7  9  1  0  0  0  0
  9 10  1  0  0  0  0
  9 11  1  0  0  0  0
  9 16  1  0  0  0  0
 11 12  1  0  0  0  0
 11 13  1  0  0  0  0
 11 14  1  0  0  0  0
 14 15  1  0  0  0  0
 16 17  2  0  0  0  0
 16 18  1  0  0  0  0
 18 19  1  0  0  0  0
 18 20  1  0  0  0  0
 20 21  1  0  0  0  0
 20 22  1  0  0  0  0
 20 23  1  0  0  0  0
M  END
$$$$

  -OEChem-01062216093D

 23 22  0     1  0  0  0  0  0999 V2000
   -2.6163   -3.7398    1.0382 H   0  0  0  0  0  0  0  0  0  0  0  0
   -2.6529   -2.6867    0.7454 C   0  0  0  0  0  0  0  0  0  0  0  0
   -3.2868   -2.1470    1.4530 H   0  0  0  0  0  0  0  0  0  0  0  0
   -3.0878   -2.6137   -0.2542 H   0  0  0  0  0  0  0  0  0  0  0  0
   -1.2559   -2.0955    0.7477 C   0  0  0  0  0  0  0  0  0  0  0  0
   -0.2988   -2.7955    1.0342 O   0  0  0  0  0  0  0  0  0  0  0  0
   -1.0715   -0.7781    0.3843 N   0  0  0  0  0  0  0  0  0  0  0  0
   -1.8980   -0.2457    0.1297 H   0  0  0  0  0  0  0  0  0  0  0  0
    0.2193   -0.0675    0.4486 C   0  0  1  0  0  0  0  0  0  0  0  0
    0.9007   -0.6152    1.1088 H   0  0  0  0  0  0  0  0  0  0  0  0
    0.8555   -0.0511   -0.9493 C   0  0  0  0  0  0  0  0  0  0  0  0
    1.8675    0.3611   -0.8786 H   0  0  0  0  0  0  0  0  0  0  0  0
    0.9423   -1.0802   -1.3139 H   0  0  0  0  0  0  0  0  0  0  0  0
    0.0940    0.7258   -1.8892 O   0  0  0  0  0  0  0  0  0  0  0  0
    0.4773    0.6406   -2.7816 H   0  0  0  0  0  0  0  0  0  0  0  0
    0.0886    1.3391    1.0634 C   0  0  0  0  0  0  0  0  0  0  0  0
    0.4066    1.5361    2.2282 O   0  0  0  0  0  0  0  0  0  0  0  0
   -0.4635    2.3759    0.3359 N   0  0  0  0  0  0  0  0  0  0  0  0
   -0.5867    2.1914   -0.6604 H   0  0  0  0  0  0  0  0  0  0  0  0
   -0.5602    3.7444    0.8269 C   0  0  0  0  0  0  0  0  0  0  0  0
    0.4366    4.1502    1.0288 H   0  0  0  0  0  0  0  0  0  0  0  0
   -1.0501    4.3794    0.0824 H   0  0  0  0  0  0  0  0  0  0  0  0
   -1.1486    3.7795    1.7499 H   0  0  0  0  0  0  0  0  0  0  0  0
  1  2  1  0  0  0  0
  2  3  1  0  0  0  0
  2  4  1  0  0  0  0
  2  5  1  0  0  0  0
  5  6  2  0  0  0  0
  5  7  1  0  0  0  0
  7  8  1  0  0  0  0
  7  9  1  0  0  0  0
  9 10  1  0  0  0  0
  9 11  1  0  0  0  0
  9 16  1  0  0  0  0
 11 12  1  0  0  0  0
 11 13  1  0  0  0  0
 11 14  1  0  0  0  0
 14 15  1  0  0  0  0
 16 17  2  0  0  0  0
 16 18  1  0  0  0  0
 18 19  1  0  0  0  0
 18 20  1  0  0  0  0
 20 21  1  0  0  0  0
 20 22  1  0  0  0  0
 20 23  1  0  0  0  0
M  END
$$$$

  -OEChem-01062216093D

 23 22  0     1  0  0  0  0  0999 V2000
   -2.6049   -3.7750    1.0250 H   0  0  0  0  0  0  0  0  0  0  0  0
   -2.6480   -2.7219    0.7329 C   0  0  0  0  0  0  0  0  0  0  0  0
   -3.3005   -2.1903    1.4296 H   0  0  0  0  0  0  0  0  0  0  0  0
   -3.0658   -2.6531   -0.2742 H   0  0  0  0  0  0  0  0  0  0  0  0
   -1.2574   -2.1161    0.7615 C   0  0  0  0  0  0  0  0  0  0  0  0
   -0.3015   -2.8049    1.0767 O   0  0  0  0  0  0  0  0  0  0  0  0
   -1.0772   -0.7976    0.3991 N   0  0  0  0  0  0  0  0  0  0  0  0
   -1.9007   -0.2762    0.1147 H   0  0  0  0  0  0  0  0  0  0  0  0
    0.2102   -0.0795    0.4725 C   0  0  1  0  0  0  0  0  0  0  0  0
    0.8992   -0.6298    1.1229 H   0  0  0  0  0  0  0  0  0  0  0  0
    0.8313   -0.0283   -0.9289 C   0  0  0  0  0  0  0  0  0  0  0  0
    1.8395    0.3937   -0.8599 H   0  0  0  0  0  0  0  0  0  0  0  0
    0.9243   -1.0467   -1.3210 H   0  0  0  0  0  0  0  0  0  0  0  0
    0.0458    0.7675   -1.8325 O   0  0  0  0  0  0  0  0  0  0  0  0
    0.4397    0.7477   -2.7241 H   0  0  0  0  0  0  0  0  0  0  0  0
    0.0784    1.3268    1.0844 C   0  0  0  0  0  0  0  0  0  0  0  0
    0.6439    1.6020    2.1340 O   0  0  0  0  0  0  0  0  0  0  0  0
   -0.7352    2.2707    0.4854 N   0  0  0  0  0  0  0  0  0  0  0  0
   -0.9715    2.0699   -0.4861 H   0  0  0  0  0  0  0  0  0  0  0  0
   -0.8319    3.6451    0.9600 C   0  0  0  0  0  0  0  0  0  0  0  0
    0.1420    4.1416    0.8987 H   0  0  0  0  0  0  0  0  0  0  0  0
   -1.5476    4.2057    0.3512 H   0  0  0  0  0  0  0  0  0  0  0  0
   -1.1738    3.6678    2.0001 H   0  0  0  0  0  0  0  0  0  0  0  0
  1  2  1  0  0  0  0
  2  3  1  0  0  0  0
  2  4  1  0  0  0  0
  2  5  1  0  0  0  0
  5  6  2  0  0  0  0
  5  7  1  0  0  0  0
  7  8  1  0  0  0  0
  7  9  1  0  0  0  0
  9 10  1  0  0  0  0
  9 11  1  0  0  0  0
  9 16  1  0  0  0  0
 11 12  1  0  0  0  0
 11 13  1  0  0  0  0
 11 14  1  0  0  0  0
 14 15  1  0  0  0  0
 16 17  2  0  0  0  0
 16 18  1  0  0  0  0
 18 19  1  0  0  0  0
 18 20  1  0  0  0  0
 20 21  1  0  0  0  0
 20 22  1  0  0  0  0
 20 23  1  0  0  0  0
M  END
$$$$

  -OEChem-01062216093D

 23 22  0     1  0  0  0  0  0999 V2000
   -2.5916   -3.8131    0.9882 H   0  0  0  0  0  0  0  0  0  0  0  0
   -2.6354   -2.7602    0.6954 C   0  0  0  0  0  0  0  0  0  0  0  0
   -3.3328   -2.2400    1.3564 H   0  0  0  0  0  0  0  0  0  0  0  0
   -2.9997   -2.6961   -0.3326 H   0  0  0  0  0  0  0  0  0  0  0  0
   -1.2582   -2.1323    0.7991 C   0  0  0  0  0  0  0  0  0  0  0  0
   -0.3126   -2.8021    1.1788 O   0  0  0  0  0  0  0  0  0  0  0  0
   -1.0786   -0.8154    0.4303 N   0  0  0  0  0  0  0  0  0  0  0  0
   -1.8851   -0.3235    0.0597 H   0  0  0  0  0  0  0  0  0  0  0  0
    0.2066   -0.0915    0.5028 C   0  0  1  0  0  0  0  0  0  0  0  0
    0.9067   -0.6419    1.1407 H   0  0  0  0  0  0  0  0  0  0  0  0
    0.7980   -0.0216   -0.9076 C   0  0  0  0  0  0  0  0  0  0  0  0
    1.8048    0.4063   -0.8562 H   0  0  0  0  0  0  0  0  0  0  0  0
    0.8865   -1.0332   -1.3184 H   0  0  0  0  0  0  0  0  0  0  0  0
   -0.0205    0.7854   -1.7708 O   0  0  0  0  0  0  0  0  0  0  0  0
    0.3716    0.8257   -2.6623 H   0  0  0  0  0  0  0  0  0  0  0  0
    0.0885    1.3203    1.1040 C   0  0  0  0  0  0  0  0  0  0  0  0
    0.8695    1.6889    1.9710 O   0  0  0  0  0  0  0  0  0  0  0  0
   -0.9315    2.1650    0.7028 N   0  0  0  0  0  0  0  0  0  0  0  0
   -1.3403    1.9321   -0.1993 H   0  0  0  0  0  0  0  0  0  0  0  0
   -1.0370    3.5408    1.1726 C   0  0  0  0  0  0  0  0  0  0  0  0
   -0.1690    4.1243    0.8486 H   0  0  0  0  0  0  0  0  0  0  0  0
   -1.9411    4.0087    0.7715 H   0  0  0  0  0  0  0  0  0  0  0  0
   -1.0925    3.5699    2.2661 H   0  0  0  0  0  0  0  0  0  0  0  0
  1  2  1  0  0  0  0
  2  3  1  0  0  0  0
  2  4  1  0  0  0  0
  2  5  1  0  0  0  0
  5  6  2  0  0  0  0
  5  7  1  0  0  0  0
  7  8  1  0  0  0  0
  7  9  1  0  0  0  0
  9 10  1  0  0  0  0
  9 11  1  0  0  0  0
  9 16  1  0  0  0  0
 11 12  1  0  0  0  0
 11 13  1  0  0  0  0
 11 14  1  0  0  0  0
 14 15  1  0  0  0  0
 16 17  2  0  0  0  0
 16 18  1  0  0  0  0
 18 19  1  0  0  0  0
 18 20  1  0  0  0  0
 20 21  1  0  0  0  0
 20 22  1  0  0  0  0
 20 23  1  0  0  0  0
M  END
$$$$

  -OEChem-01062216093D

 23 22  0     1  0  0  0  0  0999 V2000
   -2.5347   -3.8800    0.9285 H   0  0  0  0  0  0  0  0  0  0  0  0
   -2.5889   -2.8396    0.5952 C   0  0  0  0  0  0  0  0  0  0  0  0
   -3.4001   -2.3410    1.1312 H   0  0  0  0  0  0  0  0  0  0  0  0
   -2.8036   -2.8245   -0.4760 H   0  0  0  0  0  0  0  0  0  0  0  0
   -1.2744   -2.1344    0.8720 C   0  0  0  0  0  0  0  0  0  0  0  0
   -0.3614   -2.7443    1.4016 O   0  0  0  0  0  0  0  0  0  0  0  0
   -1.1141   -0.8178    0.4909 N   0  0  0  0  0  0  0  0  0  0  0  0
   -1.8339   -0.4400   -0.1171 H   0  0  0  0  0  0  0  0  0  0  0  0
    0.1728   -0.0926    0.5400 C   0  0  1  0  0  0  0  0  0  0  0  0
    0.8861   -0.6421    1.1638 H   0  0  0  0  0  0  0  0  0  0  0  0
    0.7286   -0.0351   -0.8842 C   0  0  0  0  0  0  0  0  0  0  0  0
    1.7347    0.3975   -0.8627 H   0  0  0  0  0  0  0  0  0  0  0  0
    0.8100   -1.0477   -1.2933 H   0  0  0  0  0  0  0  0  0  0  0  0
   -0.1193    0.7669   -1.7211 O   0  0  0  0  0  0  0  0  0  0  0  0
    0.2829    0.8762   -2.6019 H   0  0  0  0  0  0  0  0  0  0  0  0
    0.0977    1.3270    1.1332 C   0  0  0  0  0  0  0  0  0  0  0  0
    1.0760    1.8028    1.6949 O   0  0  0  0  0  0  0  0  0  0  0  0
   -1.0490    2.0935    1.0161 N   0  0  0  0  0  0  0  0  0  0  0  0
   -1.7536    1.7477    0.3742 H   0  0  0  0  0  0  0  0  0  0  0  0
   -1.1214    3.4818    1.4539 C   0  0  0  0  0  0  0  0  0  0  0  0
   -0.4164    4.0991    0.8874 H   0  0  0  0  0  0  0  0  0  0  0  0
   -2.1307    3.8747    1.2992 H   0  0  0  0  0  0  0  0  0  0  0  0
   -0.8817    3.5609    2.5196 H   0  0  0  0  0  0  0  0  0  0  0  0
  1  2  1  0  0  0  0
  2  3  1  0  0  0  0
  2  4  1  0  0  0  0
  2  5  1  0  0  0  0
  5  6  2  0  0  0  0
  5  7  1  0  0  0  0
  7  8  1  0  0  0  0
  7  9  1  0  0  0  0
  9 10  1  0  0  0  0
  9 11  1  0  0  0  0
  9 16  1  0  0  0  0
 11 12  1  0  0  0  0
 11 13  1  0  0  0  0
 11 14  1  0  0  0  0
 14 15  1  0  0  0  0
 16 17  2  0  0  0  0
 16 18  1  0  0  0  0
 18 19  1  0  0  0  0
 18 20  1  0  0  0  0
 20 21  1  0  0  0  0
 20 22  1  0  0  0  0
 20 23  1  0  0  0  0
M  END
$$$$

  -OEChem-01062216093D

 23 22  0     1  0  0  0  0  0999 V2000
   -2.5386   -3.8660    0.9318 H   0  0  0  0  0  0  0  0  0  0  0  0
   -2.5726   -2.8411    0.5516 C   0  0  0  0  0  0  0  0  0  0  0  0
   -3.4208   -2.3252    1.0079 H   0  0  0  0  0  0  0  0  0  0  0  0
   -2.7124   -2.8727   -0.5316 H   0  0  0  0  0  0  0  0  0  0  0  0
   -1.2830   -2.1163    0.8882 C   0  0  0  0  0  0  0  0  0  0  0  0
   -0.3962   -2.7043    1.4828 O   0  0  0  0  0  0  0  0  0  0  0  0
   -1.1193   -0.8029    0.4972 N   0  0  0  0  0  0  0  0  0  0  0  0
   -1.7948   -0.4624   -0.1819 H   0  0  0  0  0  0  0  0  0  0  0  0
    0.1755   -0.0909    0.5322 C   0  0  1  0  0  0  0  0  0  0  0  0
    0.8893   -0.6411    1.1541 H   0  0  0  0  0  0  0  0  0  0  0  0
    0.7181   -0.0554   -0.8984 C   0  0  0  0  0  0  0  0  0  0  0  0
    1.7284    0.3678   -0.8925 H   0  0  0  0  0  0  0  0  0  0  0  0
    0.7857   -1.0724   -1.2989 H   0  0  0  0  0  0  0  0  0  0  0  0
   -0.1315    0.7467   -1.7320 O   0  0  0  0  0  0  0  0  0  0  0  0
    0.2833    0.8874   -2.6020 H   0  0  0  0  0  0  0  0  0  0  0  0
    0.1200    1.3324    1.1191 C   0  0  0  0  0  0  0  0  0  0  0  0
    1.1588    1.9144    1.4053 O   0  0  0  0  0  0  0  0  0  0  0  0
   -1.0855    1.9910    1.2865 N   0  0  0  0  0  0  0  0  0  0  0  0
   -1.9263    1.4842    1.0336 H   0  0  0  0  0  0  0  0  0  0  0  0
   -1.1962    3.3524    1.7939 C   0  0  0  0  0  0  0  0  0  0  0  0
   -0.6659    4.0495    1.1367 H   0  0  0  0  0  0  0  0  0  0  0  0
   -2.2470    3.6536    1.8417 H   0  0  0  0  0  0  0  0  0  0  0  0
   -0.7700    3.4225    2.8002 H   0  0  0  0  0  0  0  0  0  0  0  0
  1  2  1  0  0  0  0
  2  3  1  0  0  0  0
  2  4  1  0  0  0  0
  2  5  1  0  0  0  0
  5  6  2  0  0  0  0
  5  7  1  0  0  0  0
  7  8  1  0  0  0  0
  7  9  1  0  0  0  0
  9 10  1  0  0  0  0
  9 11  1  0  0  0  0
  9 16  1  0  0  0  0
 11 12  1  0  0  0  0
 11 13  1  0  0  0  0
 11 14  1  0  0  0  0
 14 15  1  0  0  0  0
 16 17  2  0  0  0  0
 16 18  1  0  0  0  0
 18 19  1  0  0  0  0
 18 20  1  0  0  0  0
 20 21  1  0  0  0  0
 20 22  1  0  0  0  0
 20 23  1  0  0  0  0
M  END
$$$$

  -OEChem-01062216093D

 23 22  0     1  0  0  0  0  0999 V2000
   -2.5424   -3.8503    0.9237 H   0  0  0  0  0  0  0  0  0  0  0  0
   -2.5760   -2.8249    0.5445 C   0  0  0  0  0  0  0  0  0  0  0  0
   -3.4253   -2.3097    0.9993 H   0  0  0  0  0  0  0  0  0  0  0  0
   -2.7136   -2.8554   -0.5390 H   0  0  0  0  0  0  0  0  0  0  0  0
   -1.2867   -2.1007    0.8842 C   0  0  0  0  0  0  0  0  0  0  0  0
   -0.4087   -2.6821    1.4980 O   0  0  0  0  0  0  0  0  0  0  0  0
   -1.1152   -0.7905    0.4865 N   0  0  0  0  0  0  0  0  0  0  0  0
   -1.7869   -0.4467   -0.1959 H   0  0  0  0  0  0  0  0  0  0  0  0
    0.1832   -0.0850    0.5168 C   0  0  1  0  0  0  0  0  0  0  0  0
    0.8946   -0.6323    1.1435 H   0  0  0  0  0  0  0  0  0  0  0  0
    0.7236   -0.0674   -0.9161 C   0  0  0  0  0  0  0  0  0  0  0  0
    1.7365    0.3493   -0.9179 H   0  0  0  0  0  0  0  0  0  0  0  0
    0.7841   -1.0885   -1.3071 H   0  0  0  0  0  0  0  0  0  0  0  0
   -0.1232    0.7309   -1.7557 O   0  0  0  0  0  0  0  0  0  0  0  0
    0.3060    0.8912   -2.6152 H   0  0  0  0  0  0  0  0  0  0  0  0
    0.1257    1.3410    1.0978 C   0  0  0  0  0  0  0  0  0  0  0  0
    1.1428    2.0193    1.1727 O   0  0  0  0  0  0  0  0  0  0  0  0
   -1.0714    1.8732    1.5433 N   0  0  0  0  0  0  0  0  0  0  0  0
   -1.8727    1.2508    1.5477 H   0  0  0  0  0  0  0  0  0  0  0  0
   -1.1902    3.1951    2.1446 C   0  0  0  0  0  0  0  0  0  0  0  0
   -0.8465    3.9654    1.4461 H   0  0  0  0  0  0  0  0  0  0  0  0
   -2.2338    3.4023    2.3994 H   0  0  0  0  0  0  0  0  0  0  0  0
   -0.5914    3.2555    3.0593 H   0  0  0  0  0  0  0  0  0  0  0  0
  1  2  1  0  0  0  0
  2  3  1  0  0  0  0
  2  4  1  0  0  0  0
  2  5  1  0  0  0  0
  5  6  2  0  0  0  0
  5  7  1  0  0  0  0
  7  8  1  0  0  0  0
  7  9  1  0  0  0  0
  9 10  1  0  0  0  0
  9 11  1  0  0  0  0
  9 16  1  0  0  0  0
 11 12  1  0  0  0  0
 11 13  1  0  0  0  0
 11 14  1  0  0  0  0
 14 15  1  0  0  0  0
 16 17  2  0  0  0  0
 16 18  1  0  0  0  0
 18 19  1  0  0  0  0
 18 20  1  0  0  0  0
 20 21  1  0  0  0  0
 20 22  1  0  0  0  0
 20 23  1  0  0  0  0
M  END
$$$$

  -OEChem-01062216093D

 23 22  0     1  0  0  0  0  0999 V2000
   -2.5521   -3.8334    0.9226 H   0  0  0  0  0  0  0  0  0  0  0  0
   -2.5772   -2.8115    0.5335 C   0  0  0  0  0  0  0  0  0  0  0  0
   -3.4302   -2.2887    0.9728 H   0  0  0  0  0  0  0  0  0  0  0  0
   -2.7014   -2.8520   -0.5514 H   0  0  0  0  0  0  0  0  0  0  0  0
   -1.2894   -2.0889    0.8813 C   0  0  0  0  0  0  0  0  0  0  0  0
   -0.4171   -2.6681    1.5054 O   0  0  0  0  0  0  0  0  0  0  0  0
   -1.1127   -0.7801    0.4832 N   0  0  0  0  0  0  0  0  0  0  0  0
   -1.7898   -0.4263   -0.1891 H   0  0  0  0  0  0  0  0  0  0  0  0
    0.1872   -0.0779    0.5097 C   0  0  1  0  0  0  0  0  0  0  0  0
    0.8986   -0.6242    1.1371 H   0  0  0  0  0  0  0  0  0  0  0  0
    0.7221   -0.0742   -0.9266 C   0  0  0  0  0  0  0  0  0  0  0  0
    1.7364    0.3392   -0.9366 H   0  0  0  0  0  0  0  0  0  0  0  0
    0.7785   -1.0985   -1.3100 H   0  0  0  0  0  0  0  0  0  0  0  0
   -0.1261    0.7199   -1.7689 O   0  0  0  0  0  0  0  0  0  0  0  0
    0.3105    0.8943   -2.6216 H   0  0  0  0  0  0  0  0  0  0  0  0
    0.1258    1.3484    1.0915 C   0  0  0  0  0  0  0  0  0  0  0  0
    1.0747    2.1153    0.9793 O   0  0  0  0  0  0  0  0  0  0  0  0
   -0.9838    1.7559    1.8103 N   0  0  0  0  0  0  0  0  0  0  0  0
   -1.6999    1.0551    1.9749 H   0  0  0  0  0  0  0  0  0  0  0  0
   -1.0824    3.0485    2.4760 C   0  0  0  0  0  0  0  0  0  0  0  0
   -0.9678    3.8619    1.7517 H   0  0  0  0  0  0  0  0  0  0  0  0
   -2.0592    3.1517    2.9582 H   0  0  0  0  0  0  0  0  0  0  0  0
   -0.3054    3.1458    3.2416 H   0  0  0  0  0  0  0  0  0  0  0  0
  1  2  1  0  0  0  0
  2  3  1  0  0  0  0
  2  4  1  0  0  0  0
  2  5  1  0  0  0  0
  5  6  2  0  0  0  0
  5  7  1  0  0  0  0
  7  8  1  0  0  0  0
  7  9  1  0  0  0  0
  9 10  1  0  0  0  0
  9 11  1  0  0  0  0
  9 16  1  0  0  0  0
 11 12  1  0  0  0  0
 11 13  1  0  0  0  0
 11 14  1  0  0  0  0
 14 15  1  0  0  0  0
 16 17  2  0  0  0  0
 16 18  1  0  0  0  0
 18 19  1  0  0  0  0
 18 20  1  0  0  0  0
 20 21  1  0  0  0  0
 20 22  1  0  0  0  0
 20 23  1  0  0  0  0
M  END
$$$$

  -OEChem-01062216093D

 23 22  0     1  0  0  0  0  0999 V2000
   -2.5496   -3.8258    0.9064 H   0  0  0  0  0  0  0  0  0  0  0  0
   -2.5817   -2.7989    0.5315 C   0  0  0  0  0  0  0  0  0  0  0  0
   -3.4317   -2.2850    0.9867 H   0  0  0  0  0  0  0  0  0  0  0  0
   -2.7168   -2.8247   -0.5526 H   0  0  0  0  0  0  0  0  0  0  0  0
   -1.2929   -2.0768    0.8766 C   0  0  0  0  0  0  0  0  0  0  0  0
   -0.4229   -2.6527    1.5072 O   0  0  0  0  0  0  0  0  0  0  0  0
   -1.1141   -0.7682    0.4792 N   0  0  0  0  0  0  0  0  0  0  0  0
   -1.7975   -0.4063   -0.1826 H   0  0  0  0  0  0  0  0  0  0  0  0
    0.1867   -0.0690    0.5024 C   0  0  1  0  0  0  0  0  0  0  0  0
    0.8973   -0.6138    1.1315 H   0  0  0  0  0  0  0  0  0  0  0  0
    0.7215   -0.0803   -0.9348 C   0  0  0  0  0  0  0  0  0  0  0  0
    1.7365    0.3307   -0.9474 H   0  0  0  0  0  0  0  0  0  0  0  0
    0.7765   -1.1082   -1.3084 H   0  0  0  0  0  0  0  0  0  0  0  0
   -0.1235    0.7071   -1.7865 O   0  0  0  0  0  0  0  0  0  0  0  0
    0.3337    0.9126   -2.6212 H   0  0  0  0  0  0  0  0  0  0  0  0
    0.1197    1.3567    1.0875 C   0  0  0  0  0  0  0  0  0  0  0  0
    0.9575    2.2058    0.8067 O   0  0  0  0  0  0  0  0  0  0  0  0
   -0.8275    1.6503    2.0520 N   0  0  0  0  0  0  0  0  0  0  0  0
   -1.4337    0.8879    2.3406 H   0  0  0  0  0  0  0  0  0  0  0  0
   -0.8868    2.9198    2.7653 C   0  0  0  0  0  0  0  0  0  0  0  0
   -1.0054    3.7496    2.0606 H   0  0  0  0  0  0  0  0  0  0  0  0
   -1.7374    2.9278    3.4535 H   0  0  0  0  0  0  0  0  0  0  0  0
    0.0292    3.0770    3.3443 H   0  0  0  0  0  0  0  0  0  0  0  0
  1  2  1  0  0  0  0
  2  3  1  0  0  0  0
  2  4  1  0  0  0  0
  2  5  1  0  0  0  0
  5  6  2  0  0  0  0
  5  7  1  0  0  0  0
  7  8  1  0  0  0  0
  7  9  1  0  0  0  0
  9 10  1  0  0  0  0
  9 11  1  0  0  0  0
  9 16  1  0  0  0  0
 11 12  1  0  0  0  0
 11 13  1  0  0  0  0
 11 14  1  0  0  0  0
 14 15  1  0  0  0  0
 16 17  2  0  0  0  0
 16 18  1  0  0  0  0
 18 19  1  0  0  0  0
 18 20  1  0  0  0  0
 20 21  1  0  0  0  0
 20 22  1  0  0  0  0
 20 23  1  0  0  0  0
M  END
$$$$

  -OEChem-01062216093D

 23 22  0     1  0  0  0  0  0999 V2000
   -2.5738   -3.7933    0.9433 H   0  0  0  0  0  0  0  0  0  0  0  0
   -2.5870   -2.7791    0.5343 C   0  0  0  0  0  0  0  0  0  0  0  0
   -3.4351   -2.2387    0.9616 H   0  0  0  0  0  0  0  0  0  0  0  0
   -2.7098   -2.8388   -0.5498 H   0  0  0  0  0  0  0  0  0  0  0  0
   -1.2925   -2.0633    0.8709 C   0  0  0  0  0  0  0  0  0  0  0  0
   -0.4221   -2.6406    1.5003 O   0  0  0  0  0  0  0  0  0  0  0  0
   -1.1115   -0.7542    0.4780 N   0  0  0  0  0  0  0  0  0  0  0  0
   -1.8006   -0.3840   -0.1735 H   0  0  0  0  0  0  0  0  0  0  0  0
    0.1893   -0.0573    0.4974 C   0  0  1  0  0  0  0  0  0  0  0  0
    0.9012   -0.6021    1.1252 H   0  0  0  0  0  0  0  0  0  0  0  0
    0.7201   -0.0822   -0.9422 C   0  0  0  0  0  0  0  0  0  0  0  0
    1.7350    0.3293   -0.9586 H   0  0  0  0  0  0  0  0  0  0  0  0
    0.7750   -1.1133   -1.3067 H   0  0  0  0  0  0  0  0  0  0  0  0
   -0.1234    0.6979   -1.8020 O   0  0  0  0  0  0  0  0  0  0  0  0
    0.3431    0.9192   -2.6271 H   0  0  0  0  0  0  0  0  0  0  0  0
    0.1165    1.3652    1.0899 C   0  0  0  0  0  0  0  0  0  0  0  0
    0.7968    2.2900    0.6613 O   0  0  0  0  0  0  0  0  0  0  0  0
   -0.6016    1.5583    2.2561 N   0  0  0  0  0  0  0  0  0  0  0  0
   -1.0768    0.7455    2.6390 H   0  0  0  0  0  0  0  0  0  0  0  0
   -0.6226    2.8129    2.9974 C   0  0  0  0  0  0  0  0  0  0  0  0
   -0.9873    3.6274    2.3629 H   0  0  0  0  0  0  0  0  0  0  0  0
   -1.2849    2.7282    3.8642 H   0  0  0  0  0  0  0  0  0  0  0  0
    0.3822    3.0649    3.3524 H   0  0  0  0  0  0  0  0  0  0  0  0
  1  2  1  0  0  0  0
  2  3  1  0  0  0  0
  2  4  1  0  0  0  0
  2  5  1  0  0  0  0
  5  6  2  0  0  0  0
  5  7  1  0  0  0  0
  7  8  1  0  0  0  0
  7  9  1  0  0  0  0
  9 10  1  0  0  0  0
  9 11  1  0  0  0  0
  9 16  1  0  0  0  0
 11 12  1  0  0  0  0
 11 13  1  0  0  0  0
 11 14  1  0  0  0  0
 14 15  1  0  0  0  0
 16 17  2  0  0  0  0
 16 18  1  0  0  0  0
 18 19  1  0  0  0  0
 18 20  1  0  0  0  0
 20 21  1  0  0  0  0
 20 22  1  0  0  0  0
 20 23  1  0  0  0  0
M  END
$$$$

  -OEChem-01062216093D

 23 22  0     1  0  0  0  0  0999 V2000
   -2.5574   -3.8031    0.8868 H   0  0  0  0  0  0  0  0  0  0  0  0
   -2.5929   -2.7705    0.5280 C   0  0  0  0  0  0  0  0  0  0  0  0
   -3.4380   -2.2625    0.9989 H   0  0  0  0  0  0  0  0  0  0  0  0
   -2.7394   -2.7800   -0.5548 H   0  0  0  0  0  0  0  0  0  0  0  0
   -1.3004   -2.0535    0.8702 C   0  0  0  0  0  0  0  0  0  0  0  0
   -0.4289   -2.6320    1.4976 O   0  0  0  0  0  0  0  0  0  0  0  0
   -1.1199   -0.7426    0.4834 N   0  0  0  0  0  0  0  0  0  0  0  0
   -1.8110   -0.3682   -0.1635 H   0  0  0  0  0  0  0  0  0  0  0  0
    0.1808   -0.0482    0.5002 C   0  0  1  0  0  0  0  0  0  0  0  0
    0.8917   -0.5953    1.1272 H   0  0  0  0  0  0  0  0  0  0  0  0
    0.7155   -0.0902   -0.9384 C   0  0  0  0  0  0  0  0  0  0  0  0
    1.7299    0.3219   -0.9525 H   0  0  0  0  0  0  0  0  0  0  0  0
    0.7741   -1.1257   -1.2898 H   0  0  0  0  0  0  0  0  0  0  0  0
   -0.1189    0.6787   -1.8165 O   0  0  0  0  0  0  0  0  0  0  0  0
    0.3708    0.9316   -2.6185 H   0  0  0  0  0  0  0  0  0  0  0  0
    0.1115    1.3717    1.1013 C   0  0  0  0  0  0  0  0  0  0  0  0
    0.5831    2.3561    0.5445 O   0  0  0  0  0  0  0  0  0  0  0  0
   -0.3198    1.5031    2.4090 N   0  0  0  0  0  0  0  0  0  0  0  0
   -0.6391    0.6575    2.8746 H   0  0  0  0  0  0  0  0  0  0  0  0
   -0.2972    2.7595    3.1477 C   0  0  0  0  0  0  0  0  0  0  0  0
   -0.9018    3.5159    2.6365 H   0  0  0  0  0  0  0  0  0  0  0  0
   -0.7041    2.6142    4.1529 H   0  0  0  0  0  0  0  0  0  0  0  0
    0.7286    3.1314    3.2402 H   0  0  0  0  0  0  0  0  0  0  0  0
  1  2  1  0  0  0  0
  2  3  1  0  0  0  0
  2  4  1  0  0  0  0
  2  5  1  0  0  0  0
  5  6  2  0  0  0  0
  5  7  1  0  0  0  0
  7  8  1  0  0  0  0
  7  9  1  0  0  0  0
  9 10  1  0  0  0  0
  9 11  1  0  0  0  0
  9 16  1  0  0  0  0
 11 12  1  0  0  0  0
 11 13  1  0  0  0  0
 11 14  1  0  0  0  0
 14 15  1  0  0  0  0
 16 17  2  0  0  0  0
 16 18  1  0  0  0  0
 18 19  1  0  0  0  0
 18 20  1  0  0  0  0
 20 21  1  0  0  0  0
 20 22  1  0  0  0  0
 20 23  1  0  0  0  0
M  END
$$$$

  -OEChem-01062216093D

 23 22  0     1  0  0  0  0  0999 V2000
   -2.5808   -3.7746    0.9085 H   0  0  0  0  0  0  0  0  0  0  0  0
   -2.6054   -2.7449    0.5410 C   0  0  0  0  0  0  0  0  0  0  0  0
   -3.4363   -2.2202    1.0186 H   0  0  0  0  0  0  0  0  0  0  0  0
   -2.7661   -2.7610   -0.5398 H   0  0  0  0  0  0  0  0  0  0  0  0
   -1.2979   -2.0451    0.8602 C   0  0  0  0  0  0  0  0  0  0  0  0
   -0.4157   -2.6398    1.4576 O   0  0  0  0  0  0  0  0  0  0  0  0
   -1.1152   -0.7307    0.4876 N   0  0  0  0  0  0  0  0  0  0  0  0
   -1.8193   -0.3372   -0.1335 H   0  0  0  0  0  0  0  0  0  0  0  0
    0.1871   -0.0421    0.4977 C   0  0  1  0  0  0  0  0  0  0  0  0
    0.8989   -0.5985    1.1152 H   0  0  0  0  0  0  0  0  0  0  0  0
    0.7205   -0.0899   -0.9426 C   0  0  0  0  0  0  0  0  0  0  0  0
    1.7356    0.3208   -0.9548 H   0  0  0  0  0  0  0  0  0  0  0  0
    0.7778   -1.1273   -1.2885 H   0  0  0  0  0  0  0  0  0  0  0  0
   -0.1037    0.6751   -1.8327 O   0  0  0  0  0  0  0  0  0  0  0  0
    0.3898    0.9199   -2.6345 H   0  0  0  0  0  0  0  0  0  0  0  0
    0.1286    1.3711    1.1174 C   0  0  0  0  0  0  0  0  0  0  0  0
    0.3234    2.3990    0.4806 O   0  0  0  0  0  0  0  0  0  0  0  0
    0.0246    1.4681    2.4934 N   0  0  0  0  0  0  0  0  0  0  0  0
   -0.1280    0.6036    3.0066 H   0  0  0  0  0  0  0  0  0  0  0  0
    0.0372    2.7323    3.2191 C   0  0  0  0  0  0  0  0  0  0  0  0
   -0.7860    3.3734    2.8868 H   0  0  0  0  0  0  0  0  0  0  0  0
   -0.0755    2.5525    4.2926 H   0  0  0  0  0  0  0  0  0  0  0  0
    0.9829    3.2592    3.0542 H   0  0  0  0  0  0  0  0  0  0  0  0
  1  2  1  0  0  0  0
  2  3  1  0  0  0  0
  2  4  1  0  0  0  0
  2  5  1  0  0  0  0
  5  6  2  0  0  0  0
  5  7  1  0  0  0  0
  7  8  1  0  0  0  0
  7  9  1  0  0  0  0
  9 10  1  0  0  0  0
  9 11  1  0  0  0  0
  9 16  1  0  0  0  0
 11 12  1  0  0  0  0
 11 13  1  0  0  0  0
 11 14  1  0  0  0  0
 14 15  1  0  0  0  0
 16 17  2  0  0  0  0
 16 18  1  0  0  0  0
 18 19  1  0  0  0  0
 18 20  1  0  0  0  0
 20 21  1  0  0  0  0
 20 22  1  0  0  0  0
 20 23  1  0  0  0  0
M  END
$$$$

  -OEChem-01062216093D

 23 22  0     1  0  0  0  0  0999 V2000
   -2.5973   -3.7512    0.8686 H   0  0  0  0  0  0  0  0  0  0  0  0
   -2.6344   -2.6974    0.5786 C   0  0  0  0  0  0  0  0  0  0  0  0
   -3.4157   -2.1994    1.1578 H   0  0  0  0  0  0  0  0  0  0  0  0
   -2.8813   -2.6338   -0.4839 H   0  0  0  0  0  0  0  0  0  0  0  0
   -1.2949   -2.0355    0.8408 C   0  0  0  0  0  0  0  0  0  0  0  0
   -0.3971   -2.6628    1.3795 O   0  0  0  0  0  0  0  0  0  0  0  0
   -1.0992   -0.7192    0.4825 N   0  0  0  0  0  0  0  0  0  0  0  0
   -1.8278   -0.2854   -0.0809 H   0  0  0  0  0  0  0  0  0  0  0  0
    0.2071   -0.0406    0.4842 C   0  0  1  0  0  0  0  0  0  0  0  0
    0.9118   -0.6091    1.0987 H   0  0  0  0  0  0  0  0  0  0  0  0
    0.7597   -0.0874   -0.9495 C   0  0  0  0  0  0  0  0  0  0  0  0
    1.7774    0.3161   -0.9455 H   0  0  0  0  0  0  0  0  0  0  0  0
    0.8161   -1.1260   -1.2919 H   0  0  0  0  0  0  0  0  0  0  0  0
   -0.0389    0.6780   -1.8604 O   0  0  0  0  0  0  0  0  0  0  0  0
    0.4371    0.8367   -2.6933 H   0  0  0  0  0  0  0  0  0  0  0  0
    0.1606    1.3654    1.1215 C   0  0  0  0  0  0  0  0  0  0  0  0
   -0.0414    2.3916    0.4856 O   0  0  0  0  0  0  0  0  0  0  0  0
    0.3907    1.4756    2.4817 N   0  0  0  0  0  0  0  0  0  0  0  0
    0.4797    0.6101    3.0076 H   0  0  0  0  0  0  0  0  0  0  0  0
    0.3479    2.7402    3.2058 C   0  0  0  0  0  0  0  0  0  0  0  0
   -0.6454    3.1943    3.1257 H   0  0  0  0  0  0  0  0  0  0  0  0
    0.5703    2.5767    4.2646 H   0  0  0  0  0  0  0  0  0  0  0  0
    1.0889    3.4382    2.8019 H   0  0  0  0  0  0  0  0  0  0  0  0
  1  2  1  0  0  0  0
  2  3  1  0  0  0  0
  2  4  1  0  0  0  0
  2  5  1  0  0  0  0
  5  6  2  0  0  0  0
  5  7  1  0  0  0  0
  7  8  1  0  0  0  0
  7  9  1  0  0  0  0
  9 10  1  0  0  0  0
  9 11  1  0  0  0  0
  9 16  1  0  0  0  0
 11 12  1  0  0  0  0
 11 13  1  0  0  0  0
 11 14  1  0  0  0  0
 14 15  1  0  0  0  0
 16 17  2  0  0  0  0
 16 18  1  0  0  0  0
 18 19  1  0  0  0  0
 18 20  1  0  0  0  0
 20 21  1  0  0  0  0
 20 22  1  0  0  0  0
 20 23  1  0  0  0  0
M  END
$$$$

  -OEChem-01062216093D

 23 22  0     1  0  0  0  0  0999 V2000
   -2.6460   -3.6996    0.9221 H   0  0  0  0  0  0  0  0  0  0  0  0
   -2.6619   -2.6474    0.6249 C   0  0  0  0  0  0  0  0  0  0  0  0
   -3.4028   -2.1208    1.2312 H   0  0  0  0  0  0  0  0  0  0  0  0
   -2.9496   -2.5836   -0.4273 H   0  0  0  0  0  0  0  0  0  0  0  0
   -1.2926   -2.0266    0.8260 C   0  0  0  0  0  0  0  0  0  0  0  0
   -0.3836   -2.6892    1.3006 O   0  0  0  0  0  0  0  0  0  0  0  0
   -1.0758   -0.7136    0.4687 N   0  0  0  0  0  0  0  0  0  0  0  0
   -1.8306   -0.2279   -0.0120 H   0  0  0  0  0  0  0  0  0  0  0  0
    0.2369   -0.0492    0.4629 C   0  0  1  0  0  0  0  0  0  0  0  0
    0.9312   -0.6297    1.0773 H   0  0  0  0  0  0  0  0  0  0  0  0
    0.8066   -0.0782   -0.9637 C   0  0  0  0  0  0  0  0  0  0  0  0
    1.8297    0.3113   -0.9435 H   0  0  0  0  0  0  0  0  0  0  0  0
    0.8519   -1.1133   -1.3179 H   0  0  0  0  0  0  0  0  0  0  0  0
    0.0289    0.7051   -1.8757 O   0  0  0  0  0  0  0  0  0  0  0  0
    0.4638    0.7684   -2.7429 H   0  0  0  0  0  0  0  0  0  0  0  0
    0.1995    1.3553    1.1013 C   0  0  0  0  0  0  0  0  0  0  0  0
   -0.3975    2.2939    0.5897 O   0  0  0  0  0  0  0  0  0  0  0  0
    0.7328    1.5321    2.3667 N   0  0  0  0  0  0  0  0  0  0  0  0
    1.0957    0.7078    2.8373 H   0  0  0  0  0  0  0  0  0  0  0  0
    0.6283    2.7793    3.1145 C   0  0  0  0  0  0  0  0  0  0  0  0
   -0.4203    3.0120    3.3273 H   0  0  0  0  0  0  0  0  0  0  0  0
    1.1655    2.6964    4.0640 H   0  0  0  0  0  0  0  0  0  0  0  0
    1.0644    3.6063    2.5441 H   0  0  0  0  0  0  0  0  0  0  0  0
  1  2  1  0  0  0  0
  2  3  1  0  0  0  0
  2  4  1  0  0  0  0
  2  5  1  0  0  0  0
  5  6  2  0  0  0  0
  5  7  1  0  0  0  0
  7  8  1  0  0  0  0
  7  9  1  0  0  0  0
  9 10  1  0  0  0  0
  9 11  1  0  0  0  0
  9 16  1  0  0  0  0
 11 12  1  0  0  0  0
 11 13  1  0  0  0  0
 11 14  1  0  0  0  0
 14 15  1  0  0  0  0
 16 17  2  0  0  0  0
 16 18  1  0  0  0  0
 18 19  1  0  0  0  0
 18 20  1  0  0  0  0
 20 21  1  0  0  0  0
 20 22  1  0  0  0  0
 20 23  1  0  0  0  0
M  END
$$$$

  -OEChem-01062216093D

 23 22  0     1  0  0  0  0  0999 V2000
   -2.6853   -3.6578    0.9967 H   0  0  0  0  0  0  0  0  0  0  0  0
   -2.6835   -2.6097    0.6849 C   0  0  0  0  0  0  0  0  0  0  0  0
   -3.3689   -2.0500    1.3258 H   0  0  0  0  0  0  0  0  0  0  0  0
   -3.0311   -2.5491   -0.3493 H   0  0  0  0  0  0  0  0  0  0  0  0
   -1.2843   -2.0340    0.7955 C   0  0  0  0  0  0  0  0  0  0  0  0
   -0.3660   -2.7292    1.2008 O   0  0  0  0  0  0  0  0  0  0  0  0
   -1.0500   -0.7258    0.4340 N   0  0  0  0  0  0  0  0  0  0  0  0
   -1.8284   -0.1880    0.0574 H   0  0  0  0  0  0  0  0  0  0  0  0
    0.2646   -0.0660    0.4379 C   0  0  1  0  0  0  0  0  0  0  0  0
    0.9490   -0.6493    1.0607 H   0  0  0  0  0  0  0  0  0  0  0  0
    0.8522   -0.0674   -0.9799 C   0  0  0  0  0  0  0  0  0  0  0  0
    1.8769    0.3164   -0.9429 H   0  0  0  0  0  0  0  0  0  0  0  0
    0.8951   -1.0957   -1.3539 H   0  0  0  0  0  0  0  0  0  0  0  0
    0.0840    0.7372   -1.8810 O   0  0  0  0  0  0  0  0  0  0  0  0
    0.4880    0.7563   -2.7653 H   0  0  0  0  0  0  0  0  0  0  0  0
    0.2122    1.3403    1.0679 C   0  0  0  0  0  0  0  0  0  0  0  0
   -0.6383    2.1568    0.7332 O   0  0  0  0  0  0  0  0  0  0  0  0
    0.9851    1.6198    2.1822 N   0  0  0  0  0  0  0  0  0  0  0  0
    1.5779    0.8764    2.5397 H   0  0  0  0  0  0  0  0  0  0  0  0
    0.8704    2.8565    2.9461 C   0  0  0  0  0  0  0  0  0  0  0  0
   -0.1249    2.9387    3.3953 H   0  0  0  0  0  0  0  0  0  0  0  0
    1.6154    2.8768    3.7471 H   0  0  0  0  0  0  0  0  0  0  0  0
    1.0376    3.7238    2.2986 H   0  0  0  0  0  0  0  0  0  0  0  0
  1  2  1  0  0  0  0
  2  3  1  0  0  0  0
  2  4  1  0  0  0  0
  2  5  1  0  0  0  0
  5  6  2  0  0  0  0
  5  7  1  0  0  0  0
  7  8  1  0  0  0  0
  7  9  1  0  0  0  0
  9 10  1  0  0  0  0
  9 11  1  0  0  0  0
  9 16  1  0  0  0  0
 11 12  1  0  0  0  0
 11 13  1  0  0  0  0
 11 14  1  0  0  0  0
 14 15  1  0  0  0  0
 16 17  2  0  0  0  0
 16 18  1  0  0  0  0
 18 19  1  0  0  0  0
 18 20  1  0  0  0  0
 20 21  1  0  0  0  0
 20 22  1  0  0  0  0
 20 23  1  0  0  0  0
M  END
$$$$

  -OEChem-01062216093D

 23 22  0     1  0  0  0  0  0999 V2000
   -2.6974   -3.6513    1.0172 H   0  0  0  0  0  0  0  0  0  0  0  0
   -2.6921   -2.6003    0.7155 C   0  0  0  0  0  0  0  0  0  0  0  0
   -3.3410   -2.0364    1.3899 H   0  0  0  0  0  0  0  0  0  0  0  0
   -3.0813   -2.5238   -0.3027 H   0  0  0  0  0  0  0  0  0  0  0  0
   -1.2808   -2.0468    0.7727 C   0  0  0  0  0  0  0  0  0  0  0  0
   -0.3571   -2.7584    1.1360 O   0  0  0  0  0  0  0  0  0  0  0  0
   -1.0410   -0.7412    0.4058 N   0  0  0  0  0  0  0  0  0  0  0  0
   -1.8328   -0.1727    0.1103 H   0  0  0  0  0  0  0  0  0  0  0  0
    0.2727   -0.0792    0.4281 C   0  0  1  0  0  0  0  0  0  0  0  0
    0.9497   -0.6595    1.0617 H   0  0  0  0  0  0  0  0  0  0  0  0
    0.8741   -0.0608   -0.9823 C   0  0  0  0  0  0  0  0  0  0  0  0
    1.8988    0.3213   -0.9337 H   0  0  0  0  0  0  0  0  0  0  0  0
    0.9180   -1.0839   -1.3705 H   0  0  0  0  0  0  0  0  0  0  0  0
    0.1077    0.7571   -1.8732 O   0  0  0  0  0  0  0  0  0  0  0  0
    0.4933    0.7597   -2.7659 H   0  0  0  0  0  0  0  0  0  0  0  0
    0.2053    1.3315    1.0462 C   0  0  0  0  0  0  0  0  0  0  0  0
   -0.7826    2.0412    0.8885 O   0  0  0  0  0  0  0  0  0  0  0  0
    1.1639    1.7296    1.9626 N   0  0  0  0  0  0  0  0  0  0  0  0
    1.9114    1.0762    2.1761 H   0  0  0  0  0  0  0  0  0  0  0  0
    1.0861    2.9791    2.7102 C   0  0  0  0  0  0  0  0  0  0  0  0
    0.2092    2.9794    3.3661 H   0  0  0  0  0  0  0  0  0  0  0  0
    1.9807    3.1070    3.3273 H   0  0  0  0  0  0  0  0  0  0  0  0
    1.0150    3.8318    2.0264 H   0  0  0  0  0  0  0  0  0  0  0  0
  1  2  1  0  0  0  0
  2  3  1  0  0  0  0
  2  4  1  0  0  0  0
  2  5  1  0  0  0  0
  5  6  2  0  0  0  0
  5  7  1  0  0  0  0
  7  8  1  0  0  0  0
  7  9  1  0  0  0  0
  9 10  1  0  0  0  0
  9 11  1  0  0  0  0
  9 16  1  0  0  0  0
 11 12  1  0  0  0  0
 11 13  1  0  0  0  0
 11 14  1  0  0  0  0
 14 15  1  0  0  0  0
 16 17  2  0  0  0  0
 16 18  1  0  0  0  0
 18 19  1  0  0  0  0
 18 20  1  0  0  0  0
 20 21  1  0  0  0  0
 20 22  1  0  0  0  0
 20 23  1  0  0  0  0
M  END
$$$$

  -OEChem-01062216093D

 23 22  0     1  0  0  0  0  0999 V2000
   -2.7009   -3.6464    1.0453 H   0  0  0  0  0  0  0  0  0  0  0  0
   -2.6958   -2.5948    0.7457 C   0  0  0  0  0  0  0  0  0  0  0  0
   -3.3072   -2.0245    1.4493 H   0  0  0  0  0  0  0  0  0  0  0  0
   -3.1288   -2.5112   -0.2540 H   0  0  0  0  0  0  0  0  0  0  0  0
   -1.2765   -2.0594    0.7415 C   0  0  0  0  0  0  0  0  0  0  0  0
   -0.3463   -2.7850    1.0576 O   0  0  0  0  0  0  0  0  0  0  0  0
   -1.0370   -0.7542    0.3737 N   0  0  0  0  0  0  0  0  0  0  0  0
   -1.8398   -0.1611    0.1696 H   0  0  0  0  0  0  0  0  0  0  0  0
    0.2753   -0.0892    0.4189 C   0  0  1  0  0  0  0  0  0  0  0  0
    0.9451   -0.6658    1.0639 H   0  0  0  0  0  0  0  0  0  0  0  0
    0.8914   -0.0539   -0.9845 C   0  0  0  0  0  0  0  0  0  0  0  0
    1.9154    0.3286   -0.9235 H   0  0  0  0  0  0  0  0  0  0  0  0
    0.9394   -1.0723   -1.3842 H   0  0  0  0  0  0  0  0  0  0  0  0
    0.1297    0.7740   -1.8707 O   0  0  0  0  0  0  0  0  0  0  0  0
    0.4998    0.7563   -2.7700 H   0  0  0  0  0  0  0  0  0  0  0  0
    0.1917    1.3229    1.0308 C   0  0  0  0  0  0  0  0  0  0  0  0
   -0.8741    1.9305    1.0616 O   0  0  0  0  0  0  0  0  0  0  0  0
    1.2751    1.8474    1.7151 N   0  0  0  0  0  0  0  0  0  0  0  0
    2.1242    1.2919    1.7530 H   0  0  0  0  0  0  0  0  0  0  0  0
    1.2314    3.1189    2.4273 C   0  0  0  0  0  0  0  0  0  0  0  0
    0.4995    3.0774    3.2409 H   0  0  0  0  0  0  0  0  0  0  0  0
    2.2126    3.3466    2.8550 H   0  0  0  0  0  0  0  0  0  0  0  0
    0.9556    3.9307    1.7458 H   0  0  0  0  0  0  0  0  0  0  0  0
  1  2  1  0  0  0  0
  2  3  1  0  0  0  0
  2  4  1  0  0  0  0
  2  5  1  0  0  0  0
  5  6  2  0  0  0  0
  5  7  1  0  0  0  0
  7  8  1  0  0  0  0
  7  9  1  0  0  0  0
  9 10  1  0  0  0  0
  9 11  1  0  0  0  0
  9 16  1  0  0  0  0
 11 12  1  0  0  0  0
 11 13  1  0  0  0  0
 11 14  1  0  0  0  0
 14 15  1  0  0  0  0
 16 17  2  0  0  0  0
 16 18  1  0  0  0  0
 18 19  1  0  0  0  0
 18 20  1  0  0  0  0
 20 21  1  0  0  0  0
 20 22  1  0  0  0  0
 20 23  1  0  0  0  0
M  END
$$$$

  -OEChem-01062216093D

 23 22  0     1  0  0  0  0  0999 V2000
   -2.6995   -3.6445    1.0703 H   0  0  0  0  0  0  0  0  0  0  0  0
   -2.6958   -2.5930    0.7699 C   0  0  0  0  0  0  0  0  0  0  0  0
   -3.2706   -2.0160    1.4985 H   0  0  0  0  0  0  0  0  0  0  0  0
   -3.1696   -2.5045   -0.2107 H   0  0  0  0  0  0  0  0  0  0  0  0
   -1.2725   -2.0723    0.7052 C   0  0  0  0  0  0  0  0  0  0  0  0
   -0.3362   -2.8121    0.9653 O   0  0  0  0  0  0  0  0  0  0  0  0
   -1.0374   -0.7642    0.3452 N   0  0  0  0  0  0  0  0  0  0  0  0
   -1.8460   -0.1551    0.2317 H   0  0  0  0  0  0  0  0  0  0  0  0
    0.2745   -0.0989    0.4144 C   0  0  1  0  0  0  0  0  0  0  0  0
    0.9388   -0.6765    1.0643 H   0  0  0  0  0  0  0  0  0  0  0  0
    0.9019   -0.0499   -0.9836 C   0  0  0  0  0  0  0  0  0  0  0  0
    1.9269    0.3277   -0.9140 H   0  0  0  0  0  0  0  0  0  0  0  0
    0.9489   -1.0645   -1.3932 H   0  0  0  0  0  0  0  0  0  0  0  0
    0.1457    0.7883   -1.8650 O   0  0  0  0  0  0  0  0  0  0  0  0
    0.5047    0.7572   -2.7686 H   0  0  0  0  0  0  0  0  0  0  0  0
    0.1788    1.3108    1.0322 C   0  0  0  0  0  0  0  0  0  0  0  0
   -0.9151    1.8193    1.2603 O   0  0  0  0  0  0  0  0  0  0  0  0
    1.3202    1.9649    1.4634 N   0  0  0  0  0  0  0  0  0  0  0  0
    2.2153    1.5208    1.2842 H   0  0  0  0  0  0  0  0  0  0  0  0
    1.2964    3.2705    2.1120 C   0  0  0  0  0  0  0  0  0  0  0  0
    0.7091    3.2300    3.0356 H   0  0  0  0  0  0  0  0  0  0  0  0
    2.3132    3.5867    2.3638 H   0  0  0  0  0  0  0  0  0  0  0  0
    0.8555    4.0204    1.4468 H   0  0  0  0  0  0  0  0  0  0  0  0
  1  2  1  0  0  0  0
  2  3  1  0  0  0  0
  2  4  1  0  0  0  0
  2  5  1  0  0  0  0
  5  6  2  0  0  0  0
  5  7  1  0  0  0  0
  7  8  1  0  0  0  0
  7  9  1  0  0  0  0
  9 10  1  0  0  0  0
  9 11  1  0  0  0  0
  9 16  1  0  0  0  0
 11 12  1  0  0  0  0
 11 13  1  0  0  0  0
 11 14  1  0  0  0  0
 14 15  1  0  0  0  0
 16 17  2  0  0  0  0
 16 18  1  0  0  0  0
 18 19  1  0  0  0  0
 18 20  1  0  0  0  0
 20 21  1  0  0  0  0
 20 22  1  0  0  0  0
 20 23  1  0  0  0  0
M  END
$$$$

  -OEChem-01062216093D

 23 22  0     1  0  0  0  0  0999 V2000
   -2.6950   -3.6195    1.1263 H   0  0  0  0  0  0  0  0  0  0  0  0
   -2.6910   -2.5690    0.8223 C   0  0  0  0  0  0  0  0  0  0  0  0
   -3.1983   -1.9788    1.5894 H   0  0  0  0  0  0  0  0  0  0  0  0
   -3.2332   -2.4720   -0.1212 H   0  0  0  0  0  0  0  0  0  0  0  0
   -1.2656   -2.0789    0.6528 C   0  0  0  0  0  0  0  0  0  0  0  0
   -0.3318   -2.8473    0.8229 O   0  0  0  0  0  0  0  0  0  0  0  0
   -1.0318   -0.7674    0.3011 N   0  0  0  0  0  0  0  0  0  0  0  0
   -1.8378   -0.1458    0.3181 H   0  0  0  0  0  0  0  0  0  0  0  0
    0.2842   -0.1108    0.3991 C   0  0  1  0  0  0  0  0  0  0  0  0
    1.0211   -0.8050    0.8141 H   0  0  0  0  0  0  0  0  0  0  0  0
    0.7458    0.2846   -1.0089 C   0  0  0  0  0  0  0  0  0  0  0  0
    1.7749    0.6556   -0.9711 H   0  0  0  0  0  0  0  0  0  0  0  0
    0.7369   -0.6012   -1.6527 H   0  0  0  0  0  0  0  0  0  0  0  0
   -0.1049    1.2924   -1.5687 O   0  0  0  0  0  0  0  0  0  0  0  0
    0.1390    1.4808   -2.4917 H   0  0  0  0  0  0  0  0  0  0  0  0
    0.2556    1.1117    1.3413 C   0  0  0  0  0  0  0  0  0  0  0  0
   -0.7701    1.4089    1.9467 O   0  0  0  0  0  0  0  0  0  0  0  0
    1.3993    1.8598    1.5626 N   0  0  0  0  0  0  0  0  0  0  0  0
    2.2304    1.6162    1.0337 H   0  0  0  0  0  0  0  0  0  0  0  0
    1.4356    3.0268    2.4353 C   0  0  0  0  0  0  0  0  0  0  0  0
    1.1393    2.7534    3.4535 H   0  0  0  0  0  0  0  0  0  0  0  0
    2.4474    3.4417    2.4709 H   0  0  0  0  0  0  0  0  0  0  0  0
    0.7563    3.8022    2.0661 H   0  0  0  0  0  0  0  0  0  0  0  0
  1  2  1  0  0  0  0
  2  3  1  0  0  0  0
  2  4  1  0  0  0  0
  2  5  1  0  0  0  0
  5  6  2  0  0  0  0
  5  7  1  0  0  0  0
  7  8  1  0  0  0  0
  7  9  1  0  0  0  0
  9 10  1  0  0  0  0
  9 11  1  0  0  0  0
  9 16  1  0  0  0  0
 11 12  1  0  0  0  0
 11 13  1  0  0  0  0
 11 14  1  0  0  0  0
 14 15  1  0  0  0  0
 16 17  2  0  0  0  0
 16 18  1  0  0  0  0
 18 19  1  0  0  0  0
 18 20  1  0  0  0  0
 20 21  1  0  0  0  0
 20 22  1  0  0  0  0
 20 23  1  0  0  0  0
M  END
$$$$

  -OEChem-01062216093D

 23 22  0     1  0  0  0  0  0999 V2000
   -2.6945   -3.6039    1.1506 H   0  0  0  0  0  0  0  0  0  0  0  0
   -2.6898   -2.5572    0.8338 C   0  0  0  0  0  0  0  0  0  0  0  0
   -3.1856   -1.9560    1.5999 H   0  0  0  0  0  0  0  0  0  0  0  0
   -3.2429   -2.4691   -0.1041 H   0  0  0  0  0  0  0  0  0  0  0  0
   -1.2642   -2.0758    0.6407 C   0  0  0  0  0  0  0  0  0  0  0  0
   -0.3336   -2.8553    0.7742 O   0  0  0  0  0  0  0  0  0  0  0  0
   -1.0284   -0.7623    0.2971 N   0  0  0  0  0  0  0  0  0  0  0  0
   -1.8308   -0.1386    0.3456 H   0  0  0  0  0  0  0  0  0  0  0  0
    0.2934   -0.1157    0.3954 C   0  0  1  0  0  0  0  0  0  0  0  0
    1.0281   -0.8145    0.8070 H   0  0  0  0  0  0  0  0  0  0  0  0
    0.7527    0.2727   -1.0161 C   0  0  0  0  0  0  0  0  0  0  0  0
    1.7863    0.6319   -0.9872 H   0  0  0  0  0  0  0  0  0  0  0  0
    0.7306   -0.6154   -1.6567 H   0  0  0  0  0  0  0  0  0  0  0  0
   -0.0931    1.2860   -1.5744 O   0  0  0  0  0  0  0  0  0  0  0  0
    0.1240    1.4436   -2.5101 H   0  0  0  0  0  0  0  0  0  0  0  0
    0.2701    1.0995    1.3495 C   0  0  0  0  0  0  0  0  0  0  0  0
   -0.6653    1.2531    2.1288 O   0  0  0  0  0  0  0  0  0  0  0  0
    1.2980    2.0275    1.3595 N   0  0  0  0  0  0  0  0  0  0  0  0
    2.0007    1.9486    0.6316 H   0  0  0  0  0  0  0  0  0  0  0  0
    1.2815    3.2247    2.1909 C   0  0  0  0  0  0  0  0  0  0  0  0
    1.1801    2.9568    3.2480 H   0  0  0  0  0  0  0  0  0  0  0  0
    2.2136    3.7841    2.0668 H   0  0  0  0  0  0  0  0  0  0  0  0
    0.4462    3.8744    1.9095 H   0  0  0  0  0  0  0  0  0  0  0  0
  1  2  1  0  0  0  0
  2  3  1  0  0  0  0
  2  4  1  0  0  0  0
  2  5  1  0  0  0  0
  5  6  2  0  0  0  0
  5  7  1  0  0  0  0
  7  8  1  0  0  0  0
  7  9  1  0  0  0  0
  9 10  1  0  0  0  0
  9 11  1  0  0  0  0
  9 16  1  0  0  0  0
 11 12  1  0  0  0  0
 11 13  1  0  0  0  0
 11 14  1  0  0  0  0
 14 15  1  0  0  0  0
 16 17  2  0  0  0  0
 16 18  1  0  0  0  0
 18 19  1  0  0  0  0
 18 20  1  0  0  0  0
 20 21  1  0  0  0  0
 20 22  1  0  0  0  0
 20 23  1  0  0  0  0
M  END
$$$$

  -OEChem-01062216093D

 23 22  0     1  0  0  0  0  0999 V2000
   -2.6943   -3.5971    1.1419 H   0  0  0  0  0  0  0  0  0  0  0  0
   -2.6886   -2.5447    0.8446 C   0  0  0  0  0  0  0  0  0  0  0  0
   -3.1689   -1.9555    1.6298 H   0  0  0  0  0  0  0  0  0  0  0  0
   -3.2557   -2.4365   -0.0831 H   0  0  0  0  0  0  0  0  0  0  0  0
   -1.2635   -2.0669    0.6396 C   0  0  0  0  0  0  0  0  0  0  0  0
   -0.3350   -2.8517    0.7542 O   0  0  0  0  0  0  0  0  0  0  0  0
   -1.0277   -0.7528    0.2974 N   0  0  0  0  0  0  0  0  0  0  0  0
   -1.8310   -0.1313    0.3433 H   0  0  0  0  0  0  0  0  0  0  0  0
    0.2973   -0.1117    0.3910 C   0  0  1  0  0  0  0  0  0  0  0  0
    1.0275   -0.8119    0.8081 H   0  0  0  0  0  0  0  0  0  0  0  0
    0.7678    0.2583   -1.0223 C   0  0  0  0  0  0  0  0  0  0  0  0
    1.8048    0.6077   -0.9922 H   0  0  0  0  0  0  0  0  0  0  0  0
    0.7419   -0.6379   -1.6513 H   0  0  0  0  0  0  0  0  0  0  0  0
   -0.0664    1.2701   -1.6008 O   0  0  0  0  0  0  0  0  0  0  0  0
    0.1304    1.3807   -2.5480 H   0  0  0  0  0  0  0  0  0  0  0  0
    0.2790    1.1009    1.3497 C   0  0  0  0  0  0  0  0  0  0  0  0
   -0.5055    1.1217    2.2922 O   0  0  0  0  0  0  0  0  0  0  0  0
    1.1228    2.1837    1.1692 N   0  0  0  0  0  0  0  0  0  0  0  0
    1.6042    2.2330    0.2764 H   0  0  0  0  0  0  0  0  0  0  0  0
    1.0527    3.3884    1.9873 C   0  0  0  0  0  0  0  0  0  0  0  0
    1.1921    3.1425    3.0454 H   0  0  0  0  0  0  0  0  0  0  0  0
    1.8375    4.0916    1.6922 H   0  0  0  0  0  0  0  0  0  0  0  0
    0.0813    3.8785    1.8642 H   0  0  0  0  0  0  0  0  0  0  0  0
  1  2  1  0  0  0  0
  2  3  1  0  0  0  0
  2  4  1  0  0  0  0
  2  5  1  0  0  0  0
  5  6  2  0  0  0  0
  5  7  1  0  0  0  0
  7  8  1  0  0  0  0
  7  9  1  0  0  0  0
  9 10  1  0  0  0  0
  9 11  1  0  0  0  0
  9 16  1  0  0  0  0
 11 12  1  0  0  0  0
 11 13  1  0  0  0  0
 11 14  1  0  0  0  0
 14 15  1  0  0  0  0
 16 17  2  0  0  0  0
 16 18  1  0  0  0  0
 18 19  1  0  0  0  0
 18 20  1  0  0  0  0
 20 21  1  0  0  0  0
 20 22  1  0  0  0  0
 20 23  1  0  0  0  0
M  END
$$$$

  -OEChem-01062216093D

 23 22  0     1  0  0  0  0  0999 V2000
   -2.6878   -3.5902    1.1571 H   0  0  0  0  0  0  0  0  0  0  0  0
   -2.6865   -2.5410    0.8487 C   0  0  0  0  0  0  0  0  0  0  0  0
   -3.1744   -1.9460    1.6247 H   0  0  0  0  0  0  0  0  0  0  0  0
   -3.2490   -2.4460   -0.0832 H   0  0  0  0  0  0  0  0  0  0  0  0
   -1.2626   -2.0584    0.6467 C   0  0  0  0  0  0  0  0  0  0  0  0
   -0.3331   -2.8425    0.7560 O   0  0  0  0  0  0  0  0  0  0  0  0
   -1.0299   -0.7437    0.3025 N   0  0  0  0  0  0  0  0  0  0  0  0
   -1.8372   -0.1271    0.3240 H   0  0  0  0  0  0  0  0  0  0  0  0
    0.2957   -0.1019    0.3877 C   0  0  1  0  0  0  0  0  0  0  0  0
    1.0236   -0.8008    0.8118 H   0  0  0  0  0  0  0  0  0  0  0  0
    0.7774    0.2502   -1.0271 C   0  0  0  0  0  0  0  0  0  0  0  0
    1.8150    0.5981   -0.9899 H   0  0  0  0  0  0  0  0  0  0  0  0
    0.7563   -0.6550   -1.6434 H   0  0  0  0  0  0  0  0  0  0  0  0
   -0.0470    1.2563   -1.6316 O   0  0  0  0  0  0  0  0  0  0  0  0
    0.1440    1.3298   -2.5842 H   0  0  0  0  0  0  0  0  0  0  0  0
    0.2812    1.1102    1.3460 C   0  0  0  0  0  0  0  0  0  0  0  0
   -0.3006    1.0263    2.4213 O   0  0  0  0  0  0  0  0  0  0  0  0
    0.8809    2.3114    1.0100 N   0  0  0  0  0  0  0  0  0  0  0  0
    1.1060    2.4217    0.0239 H   0  0  0  0  0  0  0  0  0  0  0  0
    0.7694    3.5099    1.8324 C   0  0  0  0  0  0  0  0  0  0  0  0
    1.1508    3.3205    2.8414 H   0  0  0  0  0  0  0  0  0  0  0  0
    1.3530    4.3245    1.3931 H   0  0  0  0  0  0  0  0  0  0  0  0
   -0.2753    3.8295    1.9049 H   0  0  0  0  0  0  0  0  0  0  0  0
  1  2  1  0  0  0  0
  2  3  1  0  0  0  0
  2  4  1  0  0  0  0
  2  5  1  0  0  0  0
  5  6  2  0  0  0  0
  5  7  1  0  0  0  0
  7  8  1  0  0  0  0
  7  9  1  0  0  0  0
  9 10  1  0  0  0  0
  9 11  1  0  0  0  0
  9 16  1  0  0  0  0
 11 12  1  0  0  0  0
 11 13  1  0  0  0  0
 11 14  1  0  0  0  0
 14 15  1  0  0  0  0
 16 17  2  0  0  0  0
 16 18  1  0  0  0  0
 18 19  1  0  0  0  0
 18 20  1  0  0  0  0
 20 21  1  0  0  0  0
 20 22  1  0  0  0  0
 20 23  1  0  0  0  0
M  END
$$$$

  -OEChem-01062216093D

 23 22  0     1  0  0  0  0  0999 V2000
   -2.6837   -3.5979    1.1495 H   0  0  0  0  0  0  0  0  0  0  0  0
   -2.6839   -2.5496    0.8374 C   0  0  0  0  0  0  0  0  0  0  0  0
   -3.1940   -1.9567    1.6006 H   0  0  0  0  0  0  0  0  0  0  0  0
   -3.2262   -2.4625   -0.1071 H   0  0  0  0  0  0  0  0  0  0  0  0
   -1.2597   -2.0558    0.6655 C   0  0  0  0  0  0  0  0  0  0  0  0
   -0.3274   -2.8325    0.7971 O   0  0  0  0  0  0  0  0  0  0  0  0
   -1.0306   -0.7409    0.3180 N   0  0  0  0  0  0  0  0  0  0  0  0
   -1.8447   -0.1342    0.2888 H   0  0  0  0  0  0  0  0  0  0  0  0
    0.2913   -0.0901    0.3931 C   0  0  1  0  0  0  0  0  0  0  0  0
    1.0233   -0.7837    0.8194 H   0  0  0  0  0  0  0  0  0  0  0  0
    0.7692    0.2470   -1.0283 C   0  0  0  0  0  0  0  0  0  0  0  0
    1.8037    0.6046   -0.9922 H   0  0  0  0  0  0  0  0  0  0  0  0
    0.7581   -0.6673   -1.6313 H   0  0  0  0  0  0  0  0  0  0  0  0
   -0.0575    1.2401   -1.6546 O   0  0  0  0  0  0  0  0  0  0  0  0
    0.1459    1.3008   -2.6060 H   0  0  0  0  0  0  0  0  0  0  0  0
    0.2809    1.1248    1.3467 C   0  0  0  0  0  0  0  0  0  0  0  0
   -0.0675    0.9781    2.5113 O   0  0  0  0  0  0  0  0  0  0  0  0
    0.5906    2.3980    0.9046 N   0  0  0  0  0  0  0  0  0  0  0  0
    0.6226    2.5062   -0.1085 H   0  0  0  0  0  0  0  0  0  0  0  0
    0.4466    3.5889    1.7323 C   0  0  0  0  0  0  0  0  0  0  0  0
    1.0467    3.4968    2.6437 H   0  0  0  0  0  0  0  0  0  0  0  0
    0.7880    4.4723    1.1845 H   0  0  0  0  0  0  0  0  0  0  0  0
   -0.6011    3.7366    2.0136 H   0  0  0  0  0  0  0  0  0  0  0  0
  1  2  1  0  0  0  0
  2  3  1  0  0  0  0
  2  4  1  0  0  0  0
  2  5  1  0  0  0  0
  5  6  2  0  0  0  0
  5  7  1  0  0  0  0
  7  8  1  0  0  0  0
  7  9  1  0  0  0  0
  9 10  1  0  0  0  0
  9 11  1  0  0  0  0
  9 16  1  0  0  0  0
 11 12  1  0  0  0  0
 11 13  1  0  0  0  0
 11 14  1  0  0  0  0
 14 15  1  0  0  0  0
 16 17  2  0  0  0  0
 16 18  1  0  0  0  0
 18 19  1  0  0  0  0
 18 20  1  0  0  0  0
 20 21  1  0  0  0  0
 20 22  1  0  0  0  0
 20 23  1  0  0  0  0
M  END
$$$$

  -OEChem-01062216093D

 23 22  0     1  0  0  0  0  0999 V2000
   -2.6728   -3.6207    1.1256 H   0  0  0  0  0  0  0  0  0  0  0  0
   -2.6780   -2.5725    0.8137 C   0  0  0  0  0  0  0  0  0  0  0  0
   -3.2243   -1.9879    1.5578 H   0  0  0  0  0  0  0  0  0  0  0  0
   -3.1872   -2.4936   -0.1496 H   0  0  0  0  0  0  0  0  0  0  0  0
   -1.2564   -2.0573    0.6923 C   0  0  0  0  0  0  0  0  0  0  0  0
   -0.3186   -2.8191    0.8627 O   0  0  0  0  0  0  0  0  0  0  0  0
   -1.0349   -0.7424    0.3389 N   0  0  0  0  0  0  0  0  0  0  0  0
   -1.8551   -0.1518    0.2386 H   0  0  0  0  0  0  0  0  0  0  0  0
    0.2799   -0.0769    0.4059 C   0  0  1  0  0  0  0  0  0  0  0  0
    1.0192   -0.7626    0.8331 H   0  0  0  0  0  0  0  0  0  0  0  0
    0.7464    0.2446   -1.0232 C   0  0  0  0  0  0  0  0  0  0  0  0
    1.7760    0.6163   -0.9931 H   0  0  0  0  0  0  0  0  0  0  0  0
    0.7466   -0.6792   -1.6116 H   0  0  0  0  0  0  0  0  0  0  0  0
   -0.0901    1.2187   -1.6685 O   0  0  0  0  0  0  0  0  0  0  0  0
    0.1384    1.2860   -2.6139 H   0  0  0  0  0  0  0  0  0  0  0  0
    0.2706    1.1443    1.3504 C   0  0  0  0  0  0  0  0  0  0  0  0
    0.1821    0.9767    2.5594 O   0  0  0  0  0  0  0  0  0  0  0  0
    0.2656    2.4374    0.8622 N   0  0  0  0  0  0  0  0  0  0  0  0
    0.1645    2.5244   -0.1495 H   0  0  0  0  0  0  0  0  0  0  0  0
    0.1096    3.6193    1.7003 C   0  0  0  0  0  0  0  0  0  0  0  0
    0.8954    3.6554    2.4623 H   0  0  0  0  0  0  0  0  0  0  0  0
    0.1798    4.5257    1.0916 H   0  0  0  0  0  0  0  0  0  0  0  0
   -0.8649    3.6093    2.1994 H   0  0  0  0  0  0  0  0  0  0  0  0
  1  2  1  0  0  0  0
  2  3  1  0  0  0  0
  2  4  1  0  0  0  0
  2  5  1  0  0  0  0
  5  6  2  0  0  0  0
  5  7  1  0  0  0  0
  7  8  1  0  0  0  0
  7  9  1  0  0  0  0
  9 10  1  0  0  0  0
  9 11  1  0  0  0  0
  9 16  1  0  0  0  0
 11 12  1  0  0  0  0
 11 13  1  0  0  0  0
 11 14  1  0  0  0  0
 14 15  1  0  0  0  0
 16 17  2  0  0  0  0
 16 18  1  0  0  0  0
 18 19  1  0  0  0  0
 18 20  1  0  0  0  0
 20 21  1  0  0  0  0
 20 22  1  0  0  0  0
 20 23  1  0  0  0  0
M  END
$$$$

  -OEChem-01062216093D

 23 22  0     1  0  0  0  0  0999 V2000
   -2.6588   -3.6644    1.0824 H   0  0  0  0  0  0  0  0  0  0  0  0
   -2.6720   -2.6132    0.7806 C   0  0  0  0  0  0  0  0  0  0  0  0
   -3.2536   -2.0455    1.5110 H   0  0  0  0  0  0  0  0  0  0  0  0
   -3.1491   -2.5334   -0.1990 H   0  0  0  0  0  0  0  0  0  0  0  0
   -1.2562   -2.0727    0.7134 C   0  0  0  0  0  0  0  0  0  0  0  0
   -0.3129   -2.8148    0.9313 O   0  0  0  0  0  0  0  0  0  0  0  0
   -1.0457   -0.7571    0.3560 N   0  0  0  0  0  0  0  0  0  0  0  0
   -1.8700   -0.1882    0.1876 H   0  0  0  0  0  0  0  0  0  0  0  0
    0.2573   -0.0700    0.4277 C   0  0  1  0  0  0  0  0  0  0  0  0
    1.0055   -0.7440    0.8584 H   0  0  0  0  0  0  0  0  0  0  0  0
    0.7229    0.2542   -1.0008 C   0  0  0  0  0  0  0  0  0  0  0  0
    1.7449    0.6461   -0.9650 H   0  0  0  0  0  0  0  0  0  0  0  0
    0.7442   -0.6711   -1.5864 H   0  0  0  0  0  0  0  0  0  0  0  0
   -0.1262    1.2117   -1.6555 O   0  0  0  0  0  0  0  0  0  0  0  0
    0.1342    1.3071   -2.5904 H   0  0  0  0  0  0  0  0  0  0  0  0
    0.2275    1.1562    1.3635 C   0  0  0  0  0  0  0  0  0  0  0  0
    0.4165    1.0159    2.5640 O   0  0  0  0  0  0  0  0  0  0  0  0
   -0.0984    2.4123    0.8892 N   0  0  0  0  0  0  0  0  0  0  0  0
   -0.2800    2.4785   -0.1130 H   0  0  0  0  0  0  0  0  0  0  0  0
   -0.2081    3.6002    1.7253 C   0  0  0  0  0  0  0  0  0  0  0  0
    0.7376    3.7932    2.2425 H   0  0  0  0  0  0  0  0  0  0  0  0
   -0.4505    4.4729    1.1115 H   0  0  0  0  0  0  0  0  0  0  0  0
   -0.9985    3.4710    2.4720 H   0  0  0  0  0  0  0  0  0  0  0  0
  1  2  1  0  0  0  0
  2  3  1  0  0  0  0
  2  4  1  0  0  0  0
  2  5  1  0  0  0  0
  5  6  2  0  0  0  0
  5  7  1  0  0  0  0
  7  8  1  0  0  0  0
  7  9  1  0  0  0  0
  9 10  1  0  0  0  0
  9 11  1  0  0  0  0
  9 16  1  0  0  0  0
 11 12  1  0  0  0  0
 11 13  1  0  0  0  0
 11 14  1  0  0  0  0
 14 15  1  0  0  0  0
 16 17  2  0  0  0  0
 16 18  1  0  0  0  0
 18 19  1  0  0  0  0
 18 20  1  0  0  0  0
 20 21  1  0  0  0  0
 20 22  1  0  0  0  0
 20 23  1  0  0  0  0
M  END
$$$$

  -OEChem-01062216093D

 23 22  0     1  0  0  0  0  0999 V2000
   -2.6421   -3.7304    1.0189 H   0  0  0  0  0  0  0  0  0  0  0  0
   -2.6670   -2.6754    0.7319 C   0  0  0  0  0  0  0  0  0  0  0  0
   -3.2905   -2.1320    1.4459 H   0  0  0  0  0  0  0  0  0  0  0  0
   -3.1063   -2.5922   -0.2649 H   0  0  0  0  0  0  0  0  0  0  0  0
   -1.2621   -2.1022    0.7313 C   0  0  0  0  0  0  0  0  0  0  0  0
   -0.3161   -2.8191    1.0110 O   0  0  0  0  0  0  0  0  0  0  0  0
   -1.0631   -0.7838    0.3765 N   0  0  0  0  0  0  0  0  0  0  0  0
   -1.8867   -0.2395    0.1384 H   0  0  0  0  0  0  0  0  0  0  0  0
    0.2275   -0.0744    0.4641 C   0  0  1  0  0  0  0  0  0  0  0  0
    0.9852   -0.7389    0.8934 H   0  0  0  0  0  0  0  0  0  0  0  0
    0.6930    0.2791   -0.9561 C   0  0  0  0  0  0  0  0  0  0  0  0
    1.7061    0.6920   -0.9086 H   0  0  0  0  0  0  0  0  0  0  0  0
    0.7364   -0.6358   -1.5569 H   0  0  0  0  0  0  0  0  0  0  0  0
   -0.1740    1.2309   -1.5960 O   0  0  0  0  0  0  0  0  0  0  0  0
    0.1164    1.3839   -2.5143 H   0  0  0  0  0  0  0  0  0  0  0  0
    0.1700    1.1519    1.3966 C   0  0  0  0  0  0  0  0  0  0  0  0
    0.6403    1.0931    2.5243 O   0  0  0  0  0  0  0  0  0  0  0  0
   -0.4561    2.3168    0.9950 N   0  0  0  0  0  0  0  0  0  0  0  0
   -0.7011    2.3616    0.0055 H   0  0  0  0  0  0  0  0  0  0  0  0
   -0.4766    3.5365    1.7922 C   0  0  0  0  0  0  0  0  0  0  0  0
    0.5421    3.9023    1.9580 H   0  0  0  0  0  0  0  0  0  0  0  0
   -1.0466    4.3155    1.2770 H   0  0  0  0  0  0  0  0  0  0  0  0
   -0.9472    3.3514    2.7636 H   0  0  0  0  0  0  0  0  0  0  0  0
  1  2  1  0  0  0  0
  2  3  1  0  0  0  0
  2  4  1  0  0  0  0
  2  5  1  0  0  0  0
  5  6  2  0  0  0  0
  5  7  1  0  0  0  0
  7  8  1  0  0  0  0
  7  9  1  0  0  0  0
  9 10  1  0  0  0  0
  9 11  1  0  0  0  0
  9 16  1  0  0  0  0
 11 12  1  0  0  0  0
 11 13  1  0  0  0  0
 11 14  1  0  0  0  0
 14 15  1  0  0  0  0
 16 17  2  0  0  0  0
 16 18  1  0  0  0  0
 18 19  1  0  0  0  0
 18 20  1  0  0  0  0
 20 21  1  0  0  0  0
 20 22  1  0  0  0  0
 20 23  1  0  0  0  0
M  END
$$$$

  -OEChem-01062216093D

 23 22  0     1  0  0  0  0  0999 V2000
   -2.6350   -3.7741    0.9731 H   0  0  0  0  0  0  0  0  0  0  0  0
   -2.6623   -2.7175    0.6916 C   0  0  0  0  0  0  0  0  0  0  0  0
   -3.3247   -2.1876    1.3805 H   0  0  0  0  0  0  0  0  0  0  0  0
   -3.0582   -2.6342   -0.3233 H   0  0  0  0  0  0  0  0  0  0  0  0
   -1.2671   -2.1247    0.7563 C   0  0  0  0  0  0  0  0  0  0  0  0
   -0.3276   -2.8253    1.0920 O   0  0  0  0  0  0  0  0  0  0  0  0
   -1.0686   -0.8058    0.4033 N   0  0  0  0  0  0  0  0  0  0  0  0
   -1.8817   -0.2800    0.0975 H   0  0  0  0  0  0  0  0  0  0  0  0
    0.2196   -0.0906    0.4952 C   0  0  1  0  0  0  0  0  0  0  0  0
    0.9859   -0.7555    0.9085 H   0  0  0  0  0  0  0  0  0  0  0  0
    0.6606    0.2951   -0.9219 C   0  0  0  0  0  0  0  0  0  0  0  0
    1.6698    0.7185   -0.8800 H   0  0  0  0  0  0  0  0  0  0  0  0
    0.7033   -0.6035   -1.5461 H   0  0  0  0  0  0  0  0  0  0  0  0
   -0.2309    1.2545   -1.5152 O   0  0  0  0  0  0  0  0  0  0  0  0
    0.0678    1.4769   -2.4164 H   0  0  0  0  0  0  0  0  0  0  0  0
    0.1675    1.1367    1.4246 C   0  0  0  0  0  0  0  0  0  0  0  0
    0.8833    1.1957    2.4152 O   0  0  0  0  0  0  0  0  0  0  0  0
   -0.7050    2.1760    1.1582 N   0  0  0  0  0  0  0  0  0  0  0  0
   -1.0767    2.1843    0.2093 H   0  0  0  0  0  0  0  0  0  0  0  0
   -0.7180    3.4148    1.9255 C   0  0  0  0  0  0  0  0  0  0  0  0
    0.2406    3.9351    1.8296 H   0  0  0  0  0  0  0  0  0  0  0  0
   -1.5109    4.0754    1.5622 H   0  0  0  0  0  0  0  0  0  0  0  0
   -0.9021    3.2081    2.9850 H   0  0  0  0  0  0  0  0  0  0  0  0
  1  2  1  0  0  0  0
  2  3  1  0  0  0  0
  2  4  1  0  0  0  0
  2  5  1  0  0  0  0
  5  6  2  0  0  0  0
  5  7  1  0  0  0  0
  7  8  1  0  0  0  0
  7  9  1  0  0  0  0
  9 10  1  0  0  0  0
  9 11  1  0  0  0  0
  9 16  1  0  0  0  0
 11 12  1  0  0  0  0
 11 13  1  0  0  0  0
 11 14  1  0  0  0  0
 14 15  1  0  0  0  0
 16 17  2  0  0  0  0
 16 18  1  0  0  0  0
 18 19  1  0  0  0  0
 18 20  1  0  0  0  0
 20 21  1  0  0  0  0
 20 22  1  0  0  0  0
 20 23  1  0  0  0  0
M  END
$$$$

  -OEChem-01062216093D

 23 22  0     1  0  0  0  0  0999 V2000
   -2.6208   -3.8145    0.9253 H   0  0  0  0  0  0  0  0  0  0  0  0
   -2.6481   -2.7613    0.6314 C   0  0  0  0  0  0  0  0  0  0  0  0
   -3.3749   -2.2402    1.2592 H   0  0  0  0  0  0  0  0  0  0  0  0
   -2.9634   -2.6957   -0.4126 H   0  0  0  0  0  0  0  0  0  0  0  0
   -1.2756   -2.1370    0.8009 C   0  0  0  0  0  0  0  0  0  0  0  0
   -0.3555   -2.8079    1.2355 O   0  0  0  0  0  0  0  0  0  0  0  0
   -1.0768   -0.8206    0.4394 N   0  0  0  0  0  0  0  0  0  0  0  0
   -1.8546   -0.3408   -0.0027 H   0  0  0  0  0  0  0  0  0  0  0  0
    0.2122   -0.1052    0.5230 C   0  0  1  0  0  0  0  0  0  0  0  0
    0.9854   -0.7712    0.9209 H   0  0  0  0  0  0  0  0  0  0  0  0
    0.6196    0.2913   -0.8986 C   0  0  0  0  0  0  0  0  0  0  0  0
    1.6266    0.7217   -0.8778 H   0  0  0  0  0  0  0  0  0  0  0  0
    0.6511   -0.5990   -1.5354 H   0  0  0  0  0  0  0  0  0  0  0  0
   -0.2976    1.2522   -1.4472 O   0  0  0  0  0  0  0  0  0  0  0  0
    0.0009    1.5351   -2.3311 H   0  0  0  0  0  0  0  0  0  0  0  0
    0.1858    1.1313    1.4406 C   0  0  0  0  0  0  0  0  0  0  0  0
    1.1012    1.3331    2.2275 O   0  0  0  0  0  0  0  0  0  0  0  0
   -0.8626    2.0322    1.3772 N   0  0  0  0  0  0  0  0  0  0  0  0
   -1.4350    1.9670    0.5397 H   0  0  0  0  0  0  0  0  0  0  0  0
   -0.8831    3.2742    2.1397 C   0  0  0  0  0  0  0  0  0  0  0  0
   -0.0519    3.9216    1.8415 H   0  0  0  0  0  0  0  0  0  0  0  0
   -1.8215    3.8090    1.9647 H   0  0  0  0  0  0  0  0  0  0  0  0
   -0.8014    3.0673    3.2121 H   0  0  0  0  0  0  0  0  0  0  0  0
  1  2  1  0  0  0  0
  2  3  1  0  0  0  0
  2  4  1  0  0  0  0
  2  5  1  0  0  0  0
  5  6  2  0  0  0  0
  5  7  1  0  0  0  0
  7  8  1  0  0  0  0
  7  9  1  0  0  0  0
  9 10  1  0  0  0  0
  9 11  1  0  0  0  0
  9 16  1  0  0  0  0
 11 12  1  0  0  0  0
 11 13  1  0  0  0  0
 11 14  1  0  0  0  0
 14 15  1  0  0  0  0
 16 17  2  0  0  0  0
 16 18  1  0  0  0  0
 18 19  1  0  0  0  0
 18 20  1  0  0  0  0
 20 21  1  0  0  0  0
 20 22  1  0  0  0  0
 20 23  1  0  0  0  0
M  END
$$$$

  -OEChem-01062216093D

 23 22  0     1  0  0  0  0  0999 V2000
   -2.6022   -3.8513    0.8807 H   0  0  0  0  0  0  0  0  0  0  0  0
   -2.6269   -2.8085    0.5519 C   0  0  0  0  0  0  0  0  0  0  0  0
   -3.4245   -2.2900    1.0892 H   0  0  0  0  0  0  0  0  0  0  0  0
   -2.8402   -2.7828   -0.5192 H   0  0  0  0  0  0  0  0  0  0  0  0
   -1.2936   -2.1411    0.8335 C   0  0  0  0  0  0  0  0  0  0  0  0
   -0.3999   -2.7766    1.3652 O   0  0  0  0  0  0  0  0  0  0  0  0
   -1.1006   -0.8240    0.4698 N   0  0  0  0  0  0  0  0  0  0  0  0
   -1.8220   -0.4029   -0.1085 H   0  0  0  0  0  0  0  0  0  0  0  0
    0.1929   -0.1144    0.5449 C   0  0  1  0  0  0  0  0  0  0  0  0
    0.9675   -0.7858    0.9306 H   0  0  0  0  0  0  0  0  0  0  0  0
    0.5819    0.2827   -0.8804 C   0  0  0  0  0  0  0  0  0  0  0  0
    1.5890    0.7133   -0.8725 H   0  0  0  0  0  0  0  0  0  0  0  0
    0.6035   -0.6042   -1.5225 H   0  0  0  0  0  0  0  0  0  0  0  0
   -0.3446    1.2465   -1.4041 O   0  0  0  0  0  0  0  0  0  0  0  0
   -0.0292    1.5886   -2.2603 H   0  0  0  0  0  0  0  0  0  0  0  0
    0.2010    1.1242    1.4601 C   0  0  0  0  0  0  0  0  0  0  0  0
    1.2469    1.4867    1.9832 O   0  0  0  0  0  0  0  0  0  0  0  0
   -0.9438    1.8774    1.6520 N   0  0  0  0  0  0  0  0  0  0  0  0
   -1.7408    1.6404    1.0713 H   0  0  0  0  0  0  0  0  0  0  0  0
   -0.9602    3.1284    2.3986 C   0  0  0  0  0  0  0  0  0  0  0  0
   -0.3124    3.8695    1.9188 H   0  0  0  0  0  0  0  0  0  0  0  0
   -1.9770    3.5303    2.4401 H   0  0  0  0  0  0  0  0  0  0  0  0
   -0.6116    2.9667    3.4241 H   0  0  0  0  0  0  0  0  0  0  0  0
  1  2  1  0  0  0  0
  2  3  1  0  0  0  0
  2  4  1  0  0  0  0
  2  5  1  0  0  0  0
  5  6  2  0  0  0  0
  5  7  1  0  0  0  0
  7  8  1  0  0  0  0
  7  9  1  0  0  0  0
  9 10  1  0  0  0  0
  9 11  1  0  0  0  0
  9 16  1  0  0  0  0
 11 12  1  0  0  0  0
 11 13  1  0  0  0  0
 11 14  1  0  0  0  0
 14 15  1  0  0  0  0
 16 17  2  0  0  0  0
 16 18  1  0  0  0  0
 18 19  1  0  0  0  0
 18 20  1  0  0  0  0
 20 21  1  0  0  0  0
 20 22  1  0  0  0  0
 20 23  1  0  0  0  0
M  END
$$$$

  -OEChem-01062216093D

 23 22  0     1  0  0  0  0  0999 V2000
   -2.6061   -3.8382    0.8837 H   0  0  0  0  0  0  0  0  0  0  0  0
   -2.6197   -2.8057    0.5229 C   0  0  0  0  0  0  0  0  0  0  0  0
   -3.4432   -2.2754    1.0071 H   0  0  0  0  0  0  0  0  0  0  0  0
   -2.7835   -2.8134   -0.5573 H   0  0  0  0  0  0  0  0  0  0  0  0
   -1.3032   -2.1233    0.8443 C   0  0  0  0  0  0  0  0  0  0  0  0
   -0.4291   -2.7393    1.4288 O   0  0  0  0  0  0  0  0  0  0  0  0
   -1.1055   -0.8100    0.4699 N   0  0  0  0  0  0  0  0  0  0  0  0
   -1.8018   -0.4085   -0.1533 H   0  0  0  0  0  0  0  0  0  0  0  0
    0.1944   -0.1104    0.5336 C   0  0  1  0  0  0  0  0  0  0  0  0
    0.9664   -0.7839    0.9198 H   0  0  0  0  0  0  0  0  0  0  0  0
    0.5765    0.2687   -0.8992 C   0  0  0  0  0  0  0  0  0  0  0  0
    1.5865    0.6928   -0.9035 H   0  0  0  0  0  0  0  0  0  0  0  0
    0.5874   -0.6238   -1.5335 H   0  0  0  0  0  0  0  0  0  0  0  0
   -0.3477    1.2336   -1.4232 O   0  0  0  0  0  0  0  0  0  0  0  0
   -0.0211    1.5933   -2.2676 H   0  0  0  0  0  0  0  0  0  0  0  0
    0.2196    1.1344    1.4404 C   0  0  0  0  0  0  0  0  0  0  0  0
    1.2898    1.6494    1.7397 O   0  0  0  0  0  0  0  0  0  0  0  0
   -0.9541    1.7182    1.8828 N   0  0  0  0  0  0  0  0  0  0  0  0
   -1.8215    1.2713    1.6066 H   0  0  0  0  0  0  0  0  0  0  0  0
   -0.9967    2.9181    2.7082 C   0  0  0  0  0  0  0  0  0  0  0  0
   -0.5292    3.7588    2.1851 H   0  0  0  0  0  0  0  0  0  0  0  0
   -2.0334    3.1849    2.9346 H   0  0  0  0  0  0  0  0  0  0  0  0
   -0.4681    2.7520    3.6528 H   0  0  0  0  0  0  0  0  0  0  0  0
  1  2  1  0  0  0  0
  2  3  1  0  0  0  0
  2  4  1  0  0  0  0
  2  5  1  0  0  0  0
  5  6  2  0  0  0  0
  5  7  1  0  0  0  0
  7  8  1  0  0  0  0
  7  9  1  0  0  0  0
  9 10  1  0  0  0  0
  9 11  1  0  0  0  0
  9 16  1  0  0  0  0
 11 12  1  0  0  0  0
 11 13  1  0  0  0  0
 11 14  1  0  0  0  0
 14 15  1  0  0  0  0
 16 17  2  0  0  0  0
 16 18  1  0  0  0  0
 18 19  1  0  0  0  0
 18 20  1  0  0  0  0
 20 21  1  0  0  0  0
 20 22  1  0  0  0  0
 20 23  1  0  0  0  0
M  END
$$$$

  -OEChem-01062216093D

 23 22  0     1  0  0  0  0  0999 V2000
   -2.5977   -3.8333    0.8570 H   0  0  0  0  0  0  0  0  0  0  0  0
   -2.6188   -2.7946    0.5148 C   0  0  0  0  0  0  0  0  0  0  0  0
   -3.4461   -2.2785    1.0078 H   0  0  0  0  0  0  0  0  0  0  0  0
   -2.7827   -2.7845   -0.5654 H   0  0  0  0  0  0  0  0  0  0  0  0
   -1.3070   -2.1087    0.8473 C   0  0  0  0  0  0  0  0  0  0  0  0
   -0.4423   -2.7151    1.4554 O   0  0  0  0  0  0  0  0  0  0  0  0
   -1.1040   -0.7989    0.4648 N   0  0  0  0  0  0  0  0  0  0  0  0
   -1.7984   -0.3947   -0.1596 H   0  0  0  0  0  0  0  0  0  0  0  0
    0.1983   -0.1036    0.5225 C   0  0  1  0  0  0  0  0  0  0  0  0
    0.9689   -0.7756    0.9134 H   0  0  0  0  0  0  0  0  0  0  0  0
    0.5751    0.2594   -0.9170 C   0  0  0  0  0  0  0  0  0  0  0  0
    1.5866    0.6794   -0.9327 H   0  0  0  0  0  0  0  0  0  0  0  0
    0.5797   -0.6393   -1.5428 H   0  0  0  0  0  0  0  0  0  0  0  0
   -0.3495    1.2214   -1.4449 O   0  0  0  0  0  0  0  0  0  0  0  0
   -0.0065    1.6041   -2.2722 H   0  0  0  0  0  0  0  0  0  0  0  0
    0.2240    1.1465    1.4229 C   0  0  0  0  0  0  0  0  0  0  0  0
    1.2534    1.7998    1.5423 O   0  0  0  0  0  0  0  0  0  0  0  0
   -0.9102    1.5478    2.1057 N   0  0  0  0  0  0  0  0  0  0  0  0
   -1.7204    0.9407    2.0376 H   0  0  0  0  0  0  0  0  0  0  0  0
   -0.9457    2.6916    3.0078 C   0  0  0  0  0  0  0  0  0  0  0  0
   -0.6559    3.6055    2.4786 H   0  0  0  0  0  0  0  0  0  0  0  0
   -1.9560    2.8290    3.4044 H   0  0  0  0  0  0  0  0  0  0  0  0
   -0.2606    2.5384    3.8482 H   0  0  0  0  0  0  0  0  0  0  0  0
  1  2  1  0  0  0  0
  2  3  1  0  0  0  0
  2  4  1  0  0  0  0
  2  5  1  0  0  0  0
  5  6  2  0  0  0  0
  5  7  1  0  0  0  0
  7  8  1  0  0  0  0
  7  9  1  0  0  0  0
  9 10  1  0  0  0  0
  9 11  1  0  0  0  0
  9 16  1  0  0  0  0
 11 12  1  0  0  0  0
 11 13  1  0  0  0  0
 11 14  1  0  0  0  0
 14 15  1  0  0  0  0
 16 17  2  0  0  0  0
 16 18  1  0  0  0  0
 18 19  1  0  0  0  0
 18 20  1  0  0  0  0
 20 21  1  0  0  0  0
 20 22  1  0  0  0  0
 20 23  1  0  0  0  0
M  END
$$$$

  -OEChem-01062216093D

 23 22  0     1  0  0  0  0  0999 V2000
   -2.6021   -3.8177    0.8524 H   0  0  0  0  0  0  0  0  0  0  0  0
   -2.6206   -2.7802    0.5065 C   0  0  0  0  0  0  0  0  0  0  0  0
   -3.4515   -2.2624    0.9917 H   0  0  0  0  0  0  0  0  0  0  0  0
   -2.7766   -2.7735   -0.5751 H   0  0  0  0  0  0  0  0  0  0  0  0
   -1.3109   -2.0937    0.8459 C   0  0  0  0  0  0  0  0  0  0  0  0
   -0.4516   -2.6945    1.4670 O   0  0  0  0  0  0  0  0  0  0  0  0
   -1.1039   -0.7855    0.4621 N   0  0  0  0  0  0  0  0  0  0  0  0
   -1.8024   -0.3735   -0.1533 H   0  0  0  0  0  0  0  0  0  0  0  0
    0.1995   -0.0926    0.5157 C   0  0  1  0  0  0  0  0  0  0  0  0
    0.9690   -0.7636    0.9102 H   0  0  0  0  0  0  0  0  0  0  0  0
    0.5732    0.2531   -0.9296 C   0  0  0  0  0  0  0  0  0  0  0  0
    1.5854    0.6710   -0.9530 H   0  0  0  0  0  0  0  0  0  0  0  0
    0.5750   -0.6528   -1.5445 H   0  0  0  0  0  0  0  0  0  0  0  0
   -0.3510    1.2101   -1.4669 O   0  0  0  0  0  0  0  0  0  0  0  0
    0.0037    1.6031   -2.2843 H   0  0  0  0  0  0  0  0  0  0  0  0
    0.2218    1.1581    1.4168 C   0  0  0  0  0  0  0  0  0  0  0  0
    1.1653    1.9393    1.3827 O   0  0  0  0  0  0  0  0  0  0  0  0
   -0.7977    1.3778    2.3254 N   0  0  0  0  0  0  0  0  0  0  0  0
   -1.5011    0.6493    2.4007 H   0  0  0  0  0  0  0  0  0  0  0  0
   -0.8002    2.4758    3.2835 C   0  0  0  0  0  0  0  0  0  0  0  0
   -0.7352    3.4378    2.7639 H   0  0  0  0  0  0  0  0  0  0  0  0
   -1.7236    2.4631    3.8705 H   0  0  0  0  0  0  0  0  0  0  0  0
    0.0490    2.3876    3.9694 H   0  0  0  0  0  0  0  0  0  0  0  0
  1  2  1  0  0  0  0
  2  3  1  0  0  0  0
  2  4  1  0  0  0  0
  2  5  1  0  0  0  0
  5  6  2  0  0  0  0
  5  7  1  0  0  0  0
  7  8  1  0  0  0  0
  7  9  1  0  0  0  0
  9 10  1  0  0  0  0
  9 11  1  0  0  0  0
  9 16  1  0  0  0  0
 11 12  1  0  0  0  0
 11 13  1  0  0  0  0
 11 14  1  0  0  0  0
 14 15  1  0  0  0  0
 16 17  2  0  0  0  0
 16 18  1  0  0  0  0
 18 19  1  0  0  0  0
 18 20  1  0  0  0  0
 20 21  1  0  0  0  0
 20 22  1  0  0  0  0
 20 23  1  0  0  0  0
M  END
$$$$

  -OEChem-01062216093D

 23 22  0     1  0  0  0  0  0999 V2000
   -2.5989   -3.8064    0.8372 H   0  0  0  0  0  0  0  0  0  0  0  0
   -2.6259   -2.7625    0.5120 C   0  0  0  0  0  0  0  0  0  0  0  0
   -3.4506   -2.2564    1.0196 H   0  0  0  0  0  0  0  0  0  0  0  0
   -2.7982   -2.7353   -0.5668 H   0  0  0  0  0  0  0  0  0  0  0  0
   -1.3137   -2.0784    0.8455 C   0  0  0  0  0  0  0  0  0  0  0  0
   -0.4580   -2.6742    1.4766 O   0  0  0  0  0  0  0  0  0  0  0  0
   -1.1036   -0.7717    0.4601 N   0  0  0  0  0  0  0  0  0  0  0  0
   -1.8059   -0.3541   -0.1472 H   0  0  0  0  0  0  0  0  0  0  0  0
    0.2001   -0.0808    0.5096 C   0  0  1  0  0  0  0  0  0  0  0  0
    0.9688   -0.7498    0.9089 H   0  0  0  0  0  0  0  0  0  0  0  0
    0.5747    0.2481   -0.9405 C   0  0  0  0  0  0  0  0  0  0  0  0
    1.5873    0.6645   -0.9675 H   0  0  0  0  0  0  0  0  0  0  0  0
    0.5762   -0.6645   -1.5456 H   0  0  0  0  0  0  0  0  0  0  0  0
   -0.3473    1.1997   -1.4908 O   0  0  0  0  0  0  0  0  0  0  0  0
    0.0282    1.6155   -2.2871 H   0  0  0  0  0  0  0  0  0  0  0  0
    0.2145    1.1698    1.4123 C   0  0  0  0  0  0  0  0  0  0  0  0
    1.0275    2.0716    1.2450 O   0  0  0  0  0  0  0  0  0  0  0  0
   -0.6219    1.2217    2.5126 N   0  0  0  0  0  0  0  0  0  0  0  0
   -1.1861    0.3956    2.6904 H   0  0  0  0  0  0  0  0  0  0  0  0
   -0.5770    2.2832    3.5100 C   0  0  0  0  0  0  0  0  0  0  0  0
   -0.7403    3.2584    3.0391 H   0  0  0  0  0  0  0  0  0  0  0  0
   -1.3569    2.1287    4.2617 H   0  0  0  0  0  0  0  0  0  0  0  0
    0.3949    2.2935    4.0144 H   0  0  0  0  0  0  0  0  0  0  0  0
  1  2  1  0  0  0  0
  2  3  1  0  0  0  0
  2  4  1  0  0  0  0
  2  5  1  0  0  0  0
  5  6  2  0  0  0  0
  5  7  1  0  0  0  0
  7  8  1  0  0  0  0
  7  9  1  0  0  0  0
  9 10  1  0  0  0  0
  9 11  1  0  0  0  0
  9 16  1  0  0  0  0
 11 12  1  0  0  0  0
 11 13  1  0  0  0  0
 11 14  1  0  0  0  0
 14 15  1  0  0  0  0
 16 17  2  0  0  0  0
 16 18  1  0  0  0  0
 18 19  1  0  0  0  0
 18 20  1  0  0  0  0
 20 21  1  0  0  0  0
 20 22  1  0  0  0  0
 20 23  1  0  0  0  0
M  END
$$$$

  -OEChem-01062216093D

 23 22  0     1  0  0  0  0  0999 V2000
   -2.5963   -3.7936    0.8149 H   0  0  0  0  0  0  0  0  0  0  0  0
   -2.6310   -2.7415    0.5180 C   0  0  0  0  0  0  0  0  0  0  0  0
   -3.4490   -2.2512    1.0514 H   0  0  0  0  0  0  0  0  0  0  0  0
   -2.8207   -2.6864   -0.5566 H   0  0  0  0  0  0  0  0  0  0  0  0
   -1.3156   -2.0618    0.8481 C   0  0  0  0  0  0  0  0  0  0  0  0
   -0.4620   -2.6559    1.4845 O   0  0  0  0  0  0  0  0  0  0  0  0
   -1.1023   -0.7555    0.4649 N   0  0  0  0  0  0  0  0  0  0  0  0
   -1.8085   -0.3310   -0.1332 H   0  0  0  0  0  0  0  0  0  0  0  0
    0.2031   -0.0700    0.5083 C   0  0  1  0  0  0  0  0  0  0  0  0
    0.9716   -0.7400    0.9057 H   0  0  0  0  0  0  0  0  0  0  0  0
    0.5738    0.2422   -0.9472 C   0  0  0  0  0  0  0  0  0  0  0  0
    1.5870    0.6568   -0.9781 H   0  0  0  0  0  0  0  0  0  0  0  0
    0.5735   -0.6768   -1.5426 H   0  0  0  0  0  0  0  0  0  0  0  0
   -0.3450    1.1905   -1.5084 O   0  0  0  0  0  0  0  0  0  0  0  0
    0.0415    1.6173   -2.2933 H   0  0  0  0  0  0  0  0  0  0  0  0
    0.2157    1.1761    1.4172 C   0  0  0  0  0  0  0  0  0  0  0  0
    0.8562    2.1836    1.1397 O   0  0  0  0  0  0  0  0  0  0  0  0
   -0.3728    1.0872    2.6655 N   0  0  0  0  0  0  0  0  0  0  0  0
   -0.7883    0.1915    2.9088 H   0  0  0  0  0  0  0  0  0  0  0  0
   -0.2919    2.1348    3.6752 C   0  0  0  0  0  0  0  0  0  0  0  0
   -0.7003    3.0735    3.2860 H   0  0  0  0  0  0  0  0  0  0  0  0
   -0.8665    1.8504    4.5620 H   0  0  0  0  0  0  0  0  0  0  0  0
    0.7486    2.2994    3.9740 H   0  0  0  0  0  0  0  0  0  0  0  0
  1  2  1  0  0  0  0
  2  3  1  0  0  0  0
  2  4  1  0  0  0  0
  2  5  1  0  0  0  0
  5  6  2  0  0  0  0
  5  7  1  0  0  0  0
  7  8  1  0  0  0  0
  7  9  1  0  0  0  0
  9 10  1  0  0  0  0
  9 11  1  0  0  0  0
  9 16  1  0  0  0  0
 11 12  1  0  0  0  0
 11 13  1  0  0  0  0
 11 14  1  0  0  0  0
 14 15  1  0  0  0  0
 16 17  2  0  0  0  0
 16 18  1  0  0  0  0
 18 19  1  0  0  0  0
 18 20  1  0  0  0  0
 20 21  1  0  0  0  0
 20 22  1  0  0  0  0
 20 23  1  0  0  0  0
M  END
$$$$

  -OEChem-01062216093D

 23 22  0     1  0  0  0  0  0999 V2000
   -2.6238   -3.7619    0.8986 H   0  0  0  0  0  0  0  0  0  0  0  0
   -2.6326   -2.7336    0.5260 C   0  0  0  0  0  0  0  0  0  0  0  0
   -3.4595   -2.1955    0.9960 H   0  0  0  0  0  0  0  0  0  0  0  0
   -2.7873   -2.7529   -0.5555 H   0  0  0  0  0  0  0  0  0  0  0  0
   -1.3179   -2.0496    0.8499 C   0  0  0  0  0  0  0  0  0  0  0  0
   -0.4605   -2.6400    1.4859 O   0  0  0  0  0  0  0  0  0  0  0  0
   -1.1094   -0.7418    0.4694 N   0  0  0  0  0  0  0  0  0  0  0  0
   -1.8180   -0.3169   -0.1257 H   0  0  0  0  0  0  0  0  0  0  0  0
    0.1963   -0.0593    0.5058 C   0  0  1  0  0  0  0  0  0  0  0  0
    0.9659   -0.7305    0.8989 H   0  0  0  0  0  0  0  0  0  0  0  0
    0.5643    0.2404   -0.9540 C   0  0  0  0  0  0  0  0  0  0  0  0
    1.5774    0.6549   -0.9861 H   0  0  0  0  0  0  0  0  0  0  0  0
    0.5652   -0.6836   -1.5416 H   0  0  0  0  0  0  0  0  0  0  0  0
   -0.3496    1.1847   -1.5288 O   0  0  0  0  0  0  0  0  0  0  0  0
    0.0734    1.6681   -2.2602 H   0  0  0  0  0  0  0  0  0  0  0  0
    0.2114    1.1819    1.4219 C   0  0  0  0  0  0  0  0  0  0  0  0
    0.6387    2.2731    1.0628 O   0  0  0  0  0  0  0  0  0  0  0  0
   -0.0782    0.9959    2.7612 N   0  0  0  0  0  0  0  0  0  0  0  0
   -0.3412    0.0550    3.0455 H   0  0  0  0  0  0  0  0  0  0  0  0
    0.0476    2.0378    3.7725 C   0  0  0  0  0  0  0  0  0  0  0  0
   -0.5794    2.8984    3.5167 H   0  0  0  0  0  0  0  0  0  0  0  0
   -0.2705    1.6576    4.7480 H   0  0  0  0  0  0  0  0  0  0  0  0
    1.0879    2.3703    3.8526 H   0  0  0  0  0  0  0  0  0  0  0  0
  1  2  1  0  0  0  0
  2  3  1  0  0  0  0
  2  4  1  0  0  0  0
  2  5  1  0  0  0  0
  5  6  2  0  0  0  0
  5  7  1  0  0  0  0
  7  8  1  0  0  0  0
  7  9  1  0  0  0  0
  9 10  1  0  0  0  0
  9 11  1  0  0  0  0
  9 16  1  0  0  0  0
 11 12  1  0  0  0  0
 11 13  1  0  0  0  0
 11 14  1  0  0  0  0
 14 15  1  0  0  0  0
 16 17  2  0  0  0  0
 16 18  1  0  0  0  0
 18 19  1  0  0  0  0
 18 20  1  0  0  0  0
 20 21  1  0  0  0  0
 20 22  1  0  0  0  0
 20 23  1  0  0  0  0
M  END
$$$$

  -OEChem-01062216093D

 23 22  0     1  0  0  0  0  0999 V2000
   -2.6350   -3.7471    0.9014 H   0  0  0  0  0  0  0  0  0  0  0  0
   -2.6425   -2.7143    0.5416 C   0  0  0  0  0  0  0  0  0  0  0  0
   -3.4547   -2.1751    1.0354 H   0  0  0  0  0  0  0  0  0  0  0  0
   -2.8196   -2.7189   -0.5367 H   0  0  0  0  0  0  0  0  0  0  0  0
   -1.3157   -2.0452    0.8462 C   0  0  0  0  0  0  0  0  0  0  0  0
   -0.4456   -2.6530    1.4486 O   0  0  0  0  0  0  0  0  0  0  0  0
   -1.1059   -0.7347    0.4764 N   0  0  0  0  0  0  0  0  0  0  0  0
   -1.8256   -0.2942   -0.0936 H   0  0  0  0  0  0  0  0  0  0  0  0
    0.2010   -0.0570    0.5053 C   0  0  1  0  0  0  0  0  0  0  0  0
    0.9701   -0.7343    0.8888 H   0  0  0  0  0  0  0  0  0  0  0  0
    0.5659    0.2348   -0.9582 C   0  0  0  0  0  0  0  0  0  0  0  0
    1.5798    0.6472   -0.9912 H   0  0  0  0  0  0  0  0  0  0  0  0
    0.5664   -0.6931   -1.5396 H   0  0  0  0  0  0  0  0  0  0  0  0
   -0.3410    1.1780   -1.5454 O   0  0  0  0  0  0  0  0  0  0  0  0
    0.0999    1.6901   -2.2456 H   0  0  0  0  0  0  0  0  0  0  0  0
    0.2312    1.1765    1.4329 C   0  0  0  0  0  0  0  0  0  0  0  0
    0.3895    2.3231    1.0314 O   0  0  0  0  0  0  0  0  0  0  0  0
    0.2733    0.9497    2.7967 N   0  0  0  0  0  0  0  0  0  0  0  0
    0.1540   -0.0123    3.1067 H   0  0  0  0  0  0  0  0  0  0  0  0
    0.3903    2.0088    3.7912 C   0  0  0  0  0  0  0  0  0  0  0  0
   -0.4487    2.7076    3.7074 H   0  0  0  0  0  0  0  0  0  0  0  0
    0.3861    1.5825    4.7990 H   0  0  0  0  0  0  0  0  0  0  0  0
    1.3255    2.5620    3.6543 H   0  0  0  0  0  0  0  0  0  0  0  0
  1  2  1  0  0  0  0
  2  3  1  0  0  0  0
  2  4  1  0  0  0  0
  2  5  1  0  0  0  0
  5  6  2  0  0  0  0
  5  7  1  0  0  0  0
  7  8  1  0  0  0  0
  7  9  1  0  0  0  0
  9 10  1  0  0  0  0
  9 11  1  0  0  0  0
  9 16  1  0  0  0  0
 11 12  1  0  0  0  0
 11 13  1  0  0  0  0
 11 14  1  0  0  0  0
 14 15  1  0  0  0  0
 16 17  2  0  0  0  0
 16 18  1  0  0  0  0
 18 19  1  0  0  0  0
 18 20  1  0  0  0  0
 20 21  1  0  0  0  0
 20 22  1  0  0  0  0
 20 23  1  0  0  0  0
M  END
$$$$

  -OEChem-01062216093D

 23 22  0     1  0  0  0  0  0999 V2000
   -2.6381   -3.7243    0.8723 H   0  0  0  0  0  0  0  0  0  0  0  0
   -2.6618   -2.6675    0.5924 C   0  0  0  0  0  0  0  0  0  0  0  0
   -3.4180   -2.1596    1.1959 H   0  0  0  0  0  0  0  0  0  0  0  0
   -2.9342   -2.5894   -0.4629 H   0  0  0  0  0  0  0  0  0  0  0  0
   -1.3032   -2.0345    0.8264 C   0  0  0  0  0  0  0  0  0  0  0  0
   -0.4094   -2.6785    1.3524 O   0  0  0  0  0  0  0  0  0  0  0  0
   -1.0867   -0.7204    0.4724 N   0  0  0  0  0  0  0  0  0  0  0  0
   -1.8342   -0.2394   -0.0242 H   0  0  0  0  0  0  0  0  0  0  0  0
    0.2222   -0.0483    0.4916 C   0  0  1  0  0  0  0  0  0  0  0  0
    0.9860   -0.7353    0.8678 H   0  0  0  0  0  0  0  0  0  0  0  0
    0.6034    0.2447   -0.9686 C   0  0  0  0  0  0  0  0  0  0  0  0
    1.6211    0.6479   -0.9897 H   0  0  0  0  0  0  0  0  0  0  0  0
    0.6027   -0.6851   -1.5470 H   0  0  0  0  0  0  0  0  0  0  0  0
   -0.2822    1.1919   -1.5784 O   0  0  0  0  0  0  0  0  0  0  0  0
    0.1118    1.5708   -2.3828 H   0  0  0  0  0  0  0  0  0  0  0  0
    0.2646    1.1725    1.4363 C   0  0  0  0  0  0  0  0  0  0  0  0
    0.0421    2.3206    1.0743 O   0  0  0  0  0  0  0  0  0  0  0  0
    0.6388    0.9617    2.7516 N   0  0  0  0  0  0  0  0  0  0  0  0
    0.7364   -0.0052    3.0523 H   0  0  0  0  0  0  0  0  0  0  0  0
    0.6931    2.0205    3.7522 C   0  0  0  0  0  0  0  0  0  0  0  0
   -0.2937    2.4777    3.8804 H   0  0  0  0  0  0  0  0  0  0  0  0
    1.0141    1.6135    4.7159 H   0  0  0  0  0  0  0  0  0  0  0  0
    1.4050    2.7963    3.4512 H   0  0  0  0  0  0  0  0  0  0  0  0
  1  2  1  0  0  0  0
  2  3  1  0  0  0  0
  2  4  1  0  0  0  0
  2  5  1  0  0  0  0
  5  6  2  0  0  0  0
  5  7  1  0  0  0  0
  7  8  1  0  0  0  0
  7  9  1  0  0  0  0
  9 10  1  0  0  0  0
  9 11  1  0  0  0  0
  9 16  1  0  0  0  0
 11 12  1  0  0  0  0
 11 13  1  0  0  0  0
 11 14  1  0  0  0  0
 14 15  1  0  0  0  0
 16 17  2  0  0  0  0
 16 18  1  0  0  0  0
 18 19  1  0  0  0  0
 18 20  1  0  0  0  0
 20 21  1  0  0  0  0
 20 22  1  0  0  0  0
 20 23  1  0  0  0  0
M  END
$$$$

  -OEChem-01062216093D

 23 22  0     1  0  0  0  0  0999 V2000
   -2.6770   -3.6739    0.9519 H   0  0  0  0  0  0  0  0  0  0  0  0
   -2.6814   -2.6195    0.6613 C   0  0  0  0  0  0  0  0  0  0  0  0
   -3.3814   -2.0794    1.3035 H   0  0  0  0  0  0  0  0  0  0  0  0
   -3.0153   -2.5418   -0.3762 H   0  0  0  0  0  0  0  0  0  0  0  0
   -1.2900   -2.0321    0.8032 C   0  0  0  0  0  0  0  0  0  0  0  0
   -0.3785   -2.7164    1.2409 O   0  0  0  0  0  0  0  0  0  0  0  0
   -1.0599   -0.7201    0.4509 N   0  0  0  0  0  0  0  0  0  0  0  0
   -1.8371   -0.1893    0.0629 H   0  0  0  0  0  0  0  0  0  0  0  0
    0.2515   -0.0541    0.4614 C   0  0  1  0  0  0  0  0  0  0  0  0
    1.0080   -0.7500    0.8353 H   0  0  0  0  0  0  0  0  0  0  0  0
    0.6508    0.2592   -0.9886 C   0  0  0  0  0  0  0  0  0  0  0  0
    1.6734    0.6503   -0.9952 H   0  0  0  0  0  0  0  0  0  0  0  0
    0.6439   -0.6637   -1.5778 H   0  0  0  0  0  0  0  0  0  0  0  0
   -0.2174    1.2216   -1.5971 O   0  0  0  0  0  0  0  0  0  0  0  0
    0.1312    1.5154   -2.4558 H   0  0  0  0  0  0  0  0  0  0  0  0
    0.2983    1.1643    1.4078 C   0  0  0  0  0  0  0  0  0  0  0  0
   -0.3145    2.2003    1.1830 O   0  0  0  0  0  0  0  0  0  0  0  0
    0.9652    1.0462    2.6152 N   0  0  0  0  0  0  0  0  0  0  0  0
    1.3312    0.1280    2.8525 H   0  0  0  0  0  0  0  0  0  0  0  0
    0.9528    2.0823    3.6407 C   0  0  0  0  0  0  0  0  0  0  0  0
   -0.0683    2.2597    3.9942 H   0  0  0  0  0  0  0  0  0  0  0  0
    1.5672    1.7771    4.4932 H   0  0  0  0  0  0  0  0  0  0  0  0
    1.3564    3.0198    3.2437 H   0  0  0  0  0  0  0  0  0  0  0  0
  1  2  1  0  0  0  0
  2  3  1  0  0  0  0
  2  4  1  0  0  0  0
  2  5  1  0  0  0  0
  5  6  2  0  0  0  0
  5  7  1  0  0  0  0
  7  8  1  0  0  0  0
  7  9  1  0  0  0  0
  9 10  1  0  0  0  0
  9 11  1  0  0  0  0
  9 16  1  0  0  0  0
 11 12  1  0  0  0  0
 11 13  1  0  0  0  0
 11 14  1  0  0  0  0
 14 15  1  0  0  0  0
 16 17  2  0  0  0  0
 16 18  1  0  0  0  0
 18 19  1  0  0  0  0
 18 20  1  0  0  0  0
 20 21  1  0  0  0  0
 20 22  1  0  0  0  0
 20 23  1  0  0  0  0
M  END
$$$$

  -OEChem-01062216093D

 23 22  0     1  0  0  0  0  0999 V2000
   -2.7000   -3.6386    1.0242 H   0  0  0  0  0  0  0  0  0  0  0  0
   -2.6937   -2.5866    0.7253 C   0  0  0  0  0  0  0  0  0  0  0  0
   -3.3375   -2.0233    1.4050 H   0  0  0  0  0  0  0  0  0  0  0  0
   -3.0889   -2.5064   -0.2902 H   0  0  0  0  0  0  0  0  0  0  0  0
   -1.2806   -2.0371    0.7762 C   0  0  0  0  0  0  0  0  0  0  0  0
   -0.3599   -2.7506    1.1429 O   0  0  0  0  0  0  0  0  0  0  0  0
   -1.0393   -0.7298    0.4143 N   0  0  0  0  0  0  0  0  0  0  0  0
   -1.8345   -0.1560    0.1398 H   0  0  0  0  0  0  0  0  0  0  0  0
    0.2748   -0.0685    0.4304 C   0  0  1  0  0  0  0  0  0  0  0  0
    1.0241   -0.7663    0.8143 H   0  0  0  0  0  0  0  0  0  0  0  0
    0.6942    0.2700   -1.0068 C   0  0  0  0  0  0  0  0  0  0  0  0
    1.7201    0.6525   -0.9980 H   0  0  0  0  0  0  0  0  0  0  0  0
    0.6834   -0.6416   -1.6133 H   0  0  0  0  0  0  0  0  0  0  0  0
   -0.1639    1.2495   -1.6014 O   0  0  0  0  0  0  0  0  0  0  0  0
    0.1531    1.5059   -2.4841 H   0  0  0  0  0  0  0  0  0  0  0  0
    0.3052    1.1559    1.3677 C   0  0  0  0  0  0  0  0  0  0  0  0
   -0.5535    2.0284    1.3106 O   0  0  0  0  0  0  0  0  0  0  0  0
    1.1966    1.1804    2.4268 N   0  0  0  0  0  0  0  0  0  0  0  0
    1.7850    0.3626    2.5584 H   0  0  0  0  0  0  0  0  0  0  0  0
    1.1720    2.2009    3.4679 C   0  0  0  0  0  0  0  0  0  0  0  0
    0.2360    2.1489    4.0336 H   0  0  0  0  0  0  0  0  0  0  0  0
    2.0054    2.0534    4.1614 H   0  0  0  0  0  0  0  0  0  0  0  0
    1.2632    3.1997    3.0281 H   0  0  0  0  0  0  0  0  0  0  0  0
  1  2  1  0  0  0  0
  2  3  1  0  0  0  0
  2  4  1  0  0  0  0
  2  5  1  0  0  0  0
  5  6  2  0  0  0  0
  5  7  1  0  0  0  0
  7  8  1  0  0  0  0
  7  9  1  0  0  0  0
  9 10  1  0  0  0  0
  9 11  1  0  0  0  0
  9 16  1  0  0  0  0
 11 12  1  0  0  0  0
 11 13  1  0  0  0  0
 11 14  1  0  0  0  0
 14 15  1  0  0  0  0
 16 17  2  0  0  0  0
 16 18  1  0  0  0  0
 18 19  1  0  0  0  0
 18 20  1  0  0  0  0
 20 21  1  0  0  0  0
 20 22  1  0  0  0  0
 20 23  1  0  0  0  0
M  END
$$$$

  -OEChem-01062216093D

 23 22  0     1  0  0  0  0  0999 V2000
   -2.7057   -3.6217    1.0708 H   0  0  0  0  0  0  0  0  0  0  0  0
   -2.6956   -2.5704    0.7699 C   0  0  0  0  0  0  0  0  0  0  0  0
   -3.2901   -1.9939    1.4829 H   0  0  0  0  0  0  0  0  0  0  0  0
   -3.1436   -2.4832   -0.2229 H   0  0  0  0  0  0  0  0  0  0  0  0
   -1.2717   -2.0482    0.7420 C   0  0  0  0  0  0  0  0  0  0  0  0
   -0.3447   -2.7829    1.0455 O   0  0  0  0  0  0  0  0  0  0  0  0
   -1.0289   -0.7428    0.3747 N   0  0  0  0  0  0  0  0  0  0  0  0
   -1.8333   -0.1421    0.2033 H   0  0  0  0  0  0  0  0  0  0  0  0
    0.2845   -0.0800    0.4100 C   0  0  1  0  0  0  0  0  0  0  0  0
    1.0293   -0.7752    0.8079 H   0  0  0  0  0  0  0  0  0  0  0  0
    0.7204    0.2775   -1.0161 C   0  0  0  0  0  0  0  0  0  0  0  0
    1.7467    0.6579   -0.9947 H   0  0  0  0  0  0  0  0  0  0  0  0
    0.7123   -0.6257   -1.6351 H   0  0  0  0  0  0  0  0  0  0  0  0
   -0.1351    1.2654   -1.6010 O   0  0  0  0  0  0  0  0  0  0  0  0
    0.1549    1.4922   -2.5012 H   0  0  0  0  0  0  0  0  0  0  0  0
    0.2923    1.1499    1.3396 C   0  0  0  0  0  0  0  0  0  0  0  0
   -0.6975    1.8663    1.4469 O   0  0  0  0  0  0  0  0  0  0  0  0
    1.3461    1.3428    2.2168 N   0  0  0  0  0  0  0  0  0  0  0  0
    2.0914    0.6529    2.2127 H   0  0  0  0  0  0  0  0  0  0  0  0
    1.3474    2.3717    3.2500 C   0  0  0  0  0  0  0  0  0  0  0  0
    0.5443    2.1907    3.9723 H   0  0  0  0  0  0  0  0  0  0  0  0
    2.3020    2.3690    3.7850 H   0  0  0  0  0  0  0  0  0  0  0  0
    1.2051    3.3624    2.8052 H   0  0  0  0  0  0  0  0  0  0  0  0
  1  2  1  0  0  0  0
  2  3  1  0  0  0  0
  2  4  1  0  0  0  0
  2  5  1  0  0  0  0
  5  6  2  0  0  0  0
  5  7  1  0  0  0  0
  7  8  1  0  0  0  0
  7  9  1  0  0  0  0
  9 10  1  0  0  0  0
  9 11  1  0  0  0  0
  9 16  1  0  0  0  0
 11 12  1  0  0  0  0
 11 13  1  0  0  0  0
 11 14  1  0  0  0  0
 14 15  1  0  0  0  0
 16 17  2  0  0  0  0
 16 18  1  0  0  0  0
 18 19  1  0  0  0  0
 18 20  1  0  0  0  0
 20 21  1  0  0  0  0
 20 22  1  0  0  0  0
 20 23  1  0  0  0  0
M  END
$$$$

  -OEChem-01062216093D

 23 22  0     1  0  0  0  0  0999 V2000
   -2.7047   -3.6175    1.1011 H   0  0  0  0  0  0  0  0  0  0  0  0
   -2.6947   -2.5670    0.7976 C   0  0  0  0  0  0  0  0  0  0  0  0
   -3.2495   -1.9815    1.5349 H   0  0  0  0  0  0  0  0  0  0  0  0
   -3.1855   -2.4760   -0.1744 H   0  0  0  0  0  0  0  0  0  0  0  0
   -1.2672   -2.0624    0.7059 C   0  0  0  0  0  0  0  0  0  0  0  0
   -0.3361   -2.8124    0.9546 O   0  0  0  0  0  0  0  0  0  0  0  0
   -1.0270   -0.7565    0.3396 N   0  0  0  0  0  0  0  0  0  0  0  0
   -1.8343   -0.1411    0.2564 H   0  0  0  0  0  0  0  0  0  0  0  0
    0.2855   -0.0923    0.4000 C   0  0  1  0  0  0  0  0  0  0  0  0
    1.0276   -0.7841    0.8090 H   0  0  0  0  0  0  0  0  0  0  0  0
    0.7359    0.2839   -1.0159 C   0  0  0  0  0  0  0  0  0  0  0  0
    1.7617    0.6651   -0.9822 H   0  0  0  0  0  0  0  0  0  0  0  0
    0.7335   -0.6114   -1.6463 H   0  0  0  0  0  0  0  0  0  0  0  0
   -0.1186    1.2789   -1.5911 O   0  0  0  0  0  0  0  0  0  0  0  0
    0.1559    1.4936   -2.4992 H   0  0  0  0  0  0  0  0  0  0  0  0
    0.2723    1.1386    1.3277 C   0  0  0  0  0  0  0  0  0  0  0  0
   -0.7796    1.7098    1.5987 O   0  0  0  0  0  0  0  0  0  0  0  0
    1.4243    1.5131    1.9977 N   0  0  0  0  0  0  0  0  0  0  0  0
    2.2635    0.9649    1.8357 H   0  0  0  0  0  0  0  0  0  0  0  0
    1.4597    2.5798    2.9905 C   0  0  0  0  0  0  0  0  0  0  0  0
    0.8096    2.3365    3.8375 H   0  0  0  0  0  0  0  0  0  0  0  0
    2.4793    2.7149    3.3638 H   0  0  0  0  0  0  0  0  0  0  0  0
    1.1257    3.5251    2.5497 H   0  0  0  0  0  0  0  0  0  0  0  0
  1  2  1  0  0  0  0
  2  3  1  0  0  0  0
  2  4  1  0  0  0  0
  2  5  1  0  0  0  0
  5  6  2  0  0  0  0
  5  7  1  0  0  0  0
  7  8  1  0  0  0  0
  7  9  1  0  0  0  0
  9 10  1  0  0  0  0
  9 11  1  0  0  0  0
  9 16  1  0  0  0  0
 11 12  1  0  0  0  0
 11 13  1  0  0  0  0
 11 14  1  0  0  0  0
 14 15  1  0  0  0  0
 16 17  2  0  0  0  0
 16 18  1  0  0  0  0
 18 19  1  0  0  0  0
 18 20  1  0  0  0  0
 20 21  1  0  0  0  0
 20 22  1  0  0  0  0
 20 23  1  0  0  0  0
M  END
$$$$

  -OEChem-01062216093D

 23 22  0     1  0  0  0  0  0999 V2000
   -2.6986   -3.6216    1.1166 H   0  0  0  0  0  0  0  0  0  0  0  0
   -2.6927   -2.5720    0.8100 C   0  0  0  0  0  0  0  0  0  0  0  0
   -3.2221   -1.9827    1.5626 H   0  0  0  0  0  0  0  0  0  0  0  0
   -3.2122   -2.4802   -0.1467 H   0  0  0  0  0  0  0  0  0  0  0  0
   -1.2662   -2.0745    0.6746 C   0  0  0  0  0  0  0  0  0  0  0  0
   -0.3321   -2.8339    0.8805 O   0  0  0  0  0  0  0  0  0  0  0  0
   -1.0306   -0.7653    0.3162 N   0  0  0  0  0  0  0  0  0  0  0  0
   -1.8382   -0.1455    0.2900 H   0  0  0  0  0  0  0  0  0  0  0  0
    0.2823   -0.1025    0.4002 C   0  0  1  0  0  0  0  0  0  0  0  0
    1.0219   -0.7947    0.8132 H   0  0  0  0  0  0  0  0  0  0  0  0
    0.7409    0.2889   -1.0092 C   0  0  0  0  0  0  0  0  0  0  0  0
    1.7674    0.6676   -0.9697 H   0  0  0  0  0  0  0  0  0  0  0  0
    0.7386   -0.5994   -1.6497 H   0  0  0  0  0  0  0  0  0  0  0  0
   -0.1130    1.2907   -1.5742 O   0  0  0  0  0  0  0  0  0  0  0  0
    0.1443    1.4921   -2.4906 H   0  0  0  0  0  0  0  0  0  0  0  0
    0.2581    1.1245    1.3342 C   0  0  0  0  0  0  0  0  0  0  0  0
   -0.8037    1.5609    1.7688 O   0  0  0  0  0  0  0  0  0  0  0  0
    1.4428    1.6847    1.7807 N   0  0  0  0  0  0  0  0  0  0  0  0
    2.3120    1.2848    1.4414 H   0  0  0  0  0  0  0  0  0  0  0  0
    1.4963    2.8073    2.7092 C   0  0  0  0  0  0  0  0  0  0  0  0
    1.0065    2.5475    3.6536 H   0  0  0  0  0  0  0  0  0  0  0  0
    2.5362    3.0733    2.9218 H   0  0  0  0  0  0  0  0  0  0  0  0
    0.9956    3.6822    2.2812 H   0  0  0  0  0  0  0  0  0  0  0  0
  1  2  1  0  0  0  0
  2  3  1  0  0  0  0
  2  4  1  0  0  0  0
  2  5  1  0  0  0  0
  5  6  2  0  0  0  0
  5  7  1  0  0  0  0
  7  8  1  0  0  0  0
  7  9  1  0  0  0  0
  9 10  1  0  0  0  0
  9 11  1  0  0  0  0
  9 16  1  0  0  0  0
 11 12  1  0  0  0  0
 11 13  1  0  0  0  0
 11 14  1  0  0  0  0
 14 15  1  0  0  0  0
 16 17  2  0  0  0  0
 16 18  1  0  0  0  0
 18 19  1  0  0  0  0
 18 20  1  0  0  0  0
 20 21  1  0  0  0  0
 20 22  1  0  0  0  0
 20 23  1  0  0  0  0
M  END
$$$$

  -OEChem-01062216093D

 23 22  0     1  0  0  0  0  0999 V2000
   -2.6802   -3.6110    1.1541 H   0  0  0  0  0  0  0  0  0  0  0  0
   -2.6802   -2.5633    0.8407 C   0  0  0  0  0  0  0  0  0  0  0  0
   -3.1728   -1.9654    1.6115 H   0  0  0  0  0  0  0  0  0  0  0  0
   -3.2391   -2.4739   -0.0939 H   0  0  0  0  0  0  0  0  0  0  0  0
   -1.2572   -2.0769    0.6424 C   0  0  0  0  0  0  0  0  0  0  0  0
   -0.3230   -2.8510    0.7827 O   0  0  0  0  0  0  0  0  0  0  0  0
   -1.0286   -0.7642    0.2903 N   0  0  0  0  0  0  0  0  0  0  0  0
   -1.8325   -0.1431    0.3470 H   0  0  0  0  0  0  0  0  0  0  0  0
    0.2884   -0.1109    0.3936 C   0  0  1  0  0  0  0  0  0  0  0  0
    1.0727   -0.8601    0.5375 H   0  0  0  0  0  0  0  0  0  0  0  0
    0.5704    0.6130   -0.9282 C   0  0  0  0  0  0  0  0  0  0  0  0
    1.5939    1.0005   -0.9281 H   0  0  0  0  0  0  0  0  0  0  0  0
    0.4862   -0.0994   -1.7556 H   0  0  0  0  0  0  0  0  0  0  0  0
   -0.3487    1.6936   -1.1291 O   0  0  0  0  0  0  0  0  0  0  0  0
   -0.2068    2.1165   -1.9940 H   0  0  0  0  0  0  0  0  0  0  0  0
    0.3747    0.8619    1.5900 C   0  0  0  0  0  0  0  0  0  0  0  0
   -0.5766    1.0061    2.3518 O   0  0  0  0  0  0  0  0  0  0  0  0
    1.5406    1.5650    1.8424 N   0  0  0  0  0  0  0  0  0  0  0  0
    2.3105    1.4489    1.1917 H   0  0  0  0  0  0  0  0  0  0  0  0
    1.6848    2.5072    2.9453 C   0  0  0  0  0  0  0  0  0  0  0  0
    1.4836    2.0129    3.9017 H   0  0  0  0  0  0  0  0  0  0  0  0
    2.7037    2.9053    2.9712 H   0  0  0  0  0  0  0  0  0  0  0  0
    0.9881    3.3438    2.8274 H   0  0  0  0  0  0  0  0  0  0  0  0
  1  2  1  0  0  0  0
  2  3  1  0  0  0  0
  2  4  1  0  0  0  0
  2  5  1  0  0  0  0
  5  6  2  0  0  0  0
  5  7  1  0  0  0  0
  7  8  1  0  0  0  0
  7  9  1  0  0  0  0
  9 10  1  0  0  0  0
  9 11  1  0  0  0  0
  9 16  1  0  0  0  0
 11 12  1  0  0  0  0
 11 13  1  0  0  0  0
 11 14  1  0  0  0  0
 14 15  1  0  0  0  0
 16 17  2  0  0  0  0
 16 18  1  0  0  0  0
 18 19  1  0  0  0  0
 18 20  1  0  0  0  0
 20 21  1  0  0  0  0
 20 22  1  0  0  0  0
 20 23  1  0  0  0  0
M  END
$$$$

  -OEChem-01062216093D

 23 22  0     1  0  0  0  0  0999 V2000
   -2.6761   -3.5946    1.1802 H   0  0  0  0  0  0  0  0  0  0  0  0
   -2.6770   -2.5491    0.8600 C   0  0  0  0  0  0  0  0  0  0  0  0
   -3.1506   -1.9441    1.6371 H   0  0  0  0  0  0  0  0  0  0  0  0
   -3.2540   -2.4626   -0.0637 H   0  0  0  0  0  0  0  0  0  0  0  0
   -1.2559   -2.0715    0.6302 C   0  0  0  0  0  0  0  0  0  0  0  0
   -0.3255   -2.8560    0.7333 O   0  0  0  0  0  0  0  0  0  0  0  0
   -1.0267   -0.7571    0.2835 N   0  0  0  0  0  0  0  0  0  0  0  0
   -1.8272   -0.1350    0.3641 H   0  0  0  0  0  0  0  0  0  0  0  0
    0.2962   -0.1139    0.3854 C   0  0  1  0  0  0  0  0  0  0  0  0
    1.0769   -0.8670    0.5284 H   0  0  0  0  0  0  0  0  0  0  0  0
    0.5799    0.6019   -0.9414 C   0  0  0  0  0  0  0  0  0  0  0  0
    1.6078    0.9782   -0.9511 H   0  0  0  0  0  0  0  0  0  0  0  0
    0.4843   -0.1150   -1.7638 H   0  0  0  0  0  0  0  0  0  0  0  0
   -0.3320    1.6884   -1.1454 O   0  0  0  0  0  0  0  0  0  0  0  0
   -0.2150    2.0804   -2.0287 H   0  0  0  0  0  0  0  0  0  0  0  0
    0.3866    0.8498    1.5910 C   0  0  0  0  0  0  0  0  0  0  0  0
   -0.4569    0.8115    2.4813 O   0  0  0  0  0  0  0  0  0  0  0  0
    1.4124    1.7745    1.6956 N   0  0  0  0  0  0  0  0  0  0  0  0
    2.0413    1.8639    0.9043 H   0  0  0  0  0  0  0  0  0  0  0  0
    1.4996    2.7492    2.7762 C   0  0  0  0  0  0  0  0  0  0  0  0
    1.5212    2.2442    3.7478 H   0  0  0  0  0  0  0  0  0  0  0  0
    2.4131    3.3433    2.6776 H   0  0  0  0  0  0  0  0  0  0  0  0
    0.6396    3.4267    2.7506 H   0  0  0  0  0  0  0  0  0  0  0  0
  1  2  1  0  0  0  0
  2  3  1  0  0  0  0
  2  4  1  0  0  0  0
  2  5  1  0  0  0  0
  5  6  2  0  0  0  0
  5  7  1  0  0  0  0
  7  8  1  0  0  0  0
  7  9  1  0  0  0  0
  9 10  1  0  0  0  0
  9 11  1  0  0  0  0
  9 16  1  0  0  0  0
 11 12  1  0  0  0  0
 11 13  1  0  0  0  0
 11 14  1  0  0  0  0
 14 15  1  0  0  0  0
 16 17  2  0  0  0  0
 16 18  1  0  0  0  0
 18 19  1  0  0  0  0
 18 20  1  0  0  0  0
 20 21  1  0  0  0  0
 20 22  1  0  0  0  0
 20 23  1  0  0  0  0
M  END
$$$$

  -OEChem-01062216093D

 23 22  0     1  0  0  0  0  0999 V2000
   -2.6757   -3.5894    1.1788 H   0  0  0  0  0  0  0  0  0  0  0  0
   -2.6769   -2.5403    0.8701 C   0  0  0  0  0  0  0  0  0  0  0  0
   -3.1428   -1.9433    1.6580 H   0  0  0  0  0  0  0  0  0  0  0  0
   -3.2610   -2.4425   -0.0479 H   0  0  0  0  0  0  0  0  0  0  0  0
   -1.2562   -2.0641    0.6339 C   0  0  0  0  0  0  0  0  0  0  0  0
   -0.3287   -2.8537    0.7194 O   0  0  0  0  0  0  0  0  0  0  0  0
   -1.0260   -0.7487    0.2888 N   0  0  0  0  0  0  0  0  0  0  0  0
   -1.8287   -0.1284    0.3496 H   0  0  0  0  0  0  0  0  0  0  0  0
    0.2993   -0.1082    0.3843 C   0  0  1  0  0  0  0  0  0  0  0  0
    1.0767   -0.8640    0.5327 H   0  0  0  0  0  0  0  0  0  0  0  0
    0.5934    0.5898   -0.9503 C   0  0  0  0  0  0  0  0  0  0  0  0
    1.6246    0.9572   -0.9608 H   0  0  0  0  0  0  0  0  0  0  0  0
    0.4961   -0.1380   -1.7630 H   0  0  0  0  0  0  0  0  0  0  0  0
   -0.3109    1.6790   -1.1751 O   0  0  0  0  0  0  0  0  0  0  0  0
   -0.2159    2.0274   -2.0795 H   0  0  0  0  0  0  0  0  0  0  0  0
    0.3958    0.8527    1.5930 C   0  0  0  0  0  0  0  0  0  0  0  0
   -0.2737    0.6450    2.5991 O   0  0  0  0  0  0  0  0  0  0  0  0
    1.2162    1.9682    1.5689 N   0  0  0  0  0  0  0  0  0  0  0  0
    1.5996    2.2258    0.6649 H   0  0  0  0  0  0  0  0  0  0  0  0
    1.2531    2.9512    2.6451 C   0  0  0  0  0  0  0  0  0  0  0  0
    1.5150    2.4719    3.5944 H   0  0  0  0  0  0  0  0  0  0  0  0
    2.0033    3.7182    2.4301 H   0  0  0  0  0  0  0  0  0  0  0  0
    0.2783    3.4385    2.7530 H   0  0  0  0  0  0  0  0  0  0  0  0
  1  2  1  0  0  0  0
  2  3  1  0  0  0  0
  2  4  1  0  0  0  0
  2  5  1  0  0  0  0
  5  6  2  0  0  0  0
  5  7  1  0  0  0  0
  7  8  1  0  0  0  0
  7  9  1  0  0  0  0
  9 10  1  0  0  0  0
  9 11  1  0  0  0  0
  9 16  1  0  0  0  0
 11 12  1  0  0  0  0
 11 13  1  0  0  0  0
 11 14  1  0  0  0  0
 14 15  1  0  0  0  0
 16 17  2  0  0  0  0
 16 18  1  0  0  0  0
 18 19  1  0  0  0  0
 18 20  1  0  0  0  0
 20 21  1  0  0  0  0
 20 22  1  0  0  0  0
 20 23  1  0  0  0  0
M  END
$$$$

  -OEChem-01062216093D

 23 22  0     1  0  0  0  0  0999 V2000
   -2.6744   -3.5816    1.1818 H   0  0  0  0  0  0  0  0  0  0  0  0
   -2.6753   -2.5310    0.8782 C   0  0  0  0  0  0  0  0  0  0  0  0
   -3.1393   -1.9377    1.6700 H   0  0  0  0  0  0  0  0  0  0  0  0
   -3.2610   -2.4282   -0.0382 H   0  0  0  0  0  0  0  0  0  0  0  0
   -1.2544   -2.0556    0.6418 C   0  0  0  0  0  0  0  0  0  0  0  0
   -0.3287   -2.8477    0.7190 O   0  0  0  0  0  0  0  0  0  0  0  0
   -1.0245   -0.7403    0.2954 N   0  0  0  0  0  0  0  0  0  0  0  0
   -1.8302   -0.1229    0.3377 H   0  0  0  0  0  0  0  0  0  0  0  0
    0.3013   -0.0996    0.3823 C   0  0  1  0  0  0  0  0  0  0  0  0
    1.0765   -0.8566    0.5381 H   0  0  0  0  0  0  0  0  0  0  0  0
    0.6065    0.5821   -0.9590 C   0  0  0  0  0  0  0  0  0  0  0  0
    1.6397    0.9451   -0.9640 H   0  0  0  0  0  0  0  0  0  0  0  0
    0.5138   -0.1564   -1.7625 H   0  0  0  0  0  0  0  0  0  0  0  0
   -0.2898    1.6738   -1.2095 O   0  0  0  0  0  0  0  0  0  0  0  0
   -0.2022    1.9872   -2.1280 H   0  0  0  0  0  0  0  0  0  0  0  0
    0.4003    0.8601    1.5908 C   0  0  0  0  0  0  0  0  0  0  0  0
   -0.0548    0.5236    2.6774 O   0  0  0  0  0  0  0  0  0  0  0  0
    0.9608    2.1204    1.4737 N   0  0  0  0  0  0  0  0  0  0  0  0
    1.0773    2.4570    0.5210 H   0  0  0  0  0  0  0  0  0  0  0  0
    0.9467    3.0972    2.5559 C   0  0  0  0  0  0  0  0  0  0  0  0
    1.4463    2.6940    3.4432 H   0  0  0  0  0  0  0  0  0  0  0  0
    1.4723    4.0070    2.2504 H   0  0  0  0  0  0  0  0  0  0  0  0
   -0.0824    3.3617    2.8203 H   0  0  0  0  0  0  0  0  0  0  0  0
  1  2  1  0  0  0  0
  2  3  1  0  0  0  0
  2  4  1  0  0  0  0
  2  5  1  0  0  0  0
  5  6  2  0  0  0  0
  5  7  1  0  0  0  0
  7  8  1  0  0  0  0
  7  9  1  0  0  0  0
  9 10  1  0  0  0  0
  9 11  1  0  0  0  0
  9 16  1  0  0  0  0
 11 12  1  0  0  0  0
 11 13  1  0  0  0  0
 11 14  1  0  0  0  0
 14 15  1  0  0  0  0
 16 17  2  0  0  0  0
 16 18  1  0  0  0  0
 18 19  1  0  0  0  0
 18 20  1  0  0  0  0
 20 21  1  0  0  0  0
 20 22  1  0  0  0  0
 20 23  1  0  0  0  0
M  END
$$$$

  -OEChem-01062216093D

 23 22  0     1  0  0  0  0  0999 V2000
   -2.6737   -3.5911    1.1634 H   0  0  0  0  0  0  0  0  0  0  0  0
   -2.6757   -2.5401    0.8608 C   0  0  0  0  0  0  0  0  0  0  0  0
   -3.1666   -1.9520    1.6400 H   0  0  0  0  0  0  0  0  0  0  0  0
   -3.2374   -2.4423   -0.0712 H   0  0  0  0  0  0  0  0  0  0  0  0
   -1.2529   -2.0519    0.6640 C   0  0  0  0  0  0  0  0  0  0  0  0
   -0.3240   -2.8366    0.7671 O   0  0  0  0  0  0  0  0  0  0  0  0
   -1.0249   -0.7365    0.3153 N   0  0  0  0  0  0  0  0  0  0  0  0
   -1.8369   -0.1267    0.3052 H   0  0  0  0  0  0  0  0  0  0  0  0
    0.2970   -0.0870    0.3930 C   0  0  1  0  0  0  0  0  0  0  0  0
    1.0746   -0.8410    0.5515 H   0  0  0  0  0  0  0  0  0  0  0  0
    0.5978    0.5788   -0.9586 C   0  0  0  0  0  0  0  0  0  0  0  0
    1.6283    0.9492   -0.9630 H   0  0  0  0  0  0  0  0  0  0  0  0
    0.5145   -0.1723   -1.7514 H   0  0  0  0  0  0  0  0  0  0  0  0
   -0.3013    1.6641   -1.2343 O   0  0  0  0  0  0  0  0  0  0  0  0
   -0.2049    1.9605   -2.1580 H   0  0  0  0  0  0  0  0  0  0  0  0
    0.4028    0.8771    1.5964 C   0  0  0  0  0  0  0  0  0  0  0  0
    0.1970    0.4630    2.7300 O   0  0  0  0  0  0  0  0  0  0  0  0
    0.6646    2.2245    1.4251 N   0  0  0  0  0  0  0  0  0  0  0  0
    0.5758    2.5622    0.4677 H   0  0  0  0  0  0  0  0  0  0  0  0
    0.6171    3.1910    2.5152 C   0  0  0  0  0  0  0  0  0  0  0  0
    1.3178    2.9092    3.3083 H   0  0  0  0  0  0  0  0  0  0  0  0
    0.8932    4.1852    2.1512 H   0  0  0  0  0  0  0  0  0  0  0  0
   -0.3916    3.2422    2.9382 H   0  0  0  0  0  0  0  0  0  0  0  0
  1  2  1  0  0  0  0
  2  3  1  0  0  0  0
  2  4  1  0  0  0  0
  2  5  1  0  0  0  0
  5  6  2  0  0  0  0
  5  7  1  0  0  0  0
  7  8  1  0  0  0  0
  7  9  1  0  0  0  0
  9 10  1  0  0  0  0
  9 11  1  0  0  0  0
  9 16  1  0  0  0  0
 11 12  1  0  0  0  0
 11 13  1  0  0  0  0
 11 14  1  0  0  0  0
 14 15  1  0  0  0  0
 16 17  2  0  0  0  0
 16 18  1  0  0  0  0
 18 19  1  0  0  0  0
 18 20  1  0  0  0  0
 20 21  1  0  0  0  0
 20 22  1  0  0  0  0
 20 23  1  0  0  0  0
M  END
$$$$

  -OEChem-01062216093D

 23 22  0     1  0  0  0  0  0999 V2000
   -2.6699   -3.6130    1.1410 H   0  0  0  0  0  0  0  0  0  0  0  0
   -2.6749   -2.5648    0.8288 C   0  0  0  0  0  0  0  0  0  0  0  0
   -3.2066   -1.9777    1.5814 H   0  0  0  0  0  0  0  0  0  0  0  0
   -3.1983   -2.4837   -0.1268 H   0  0  0  0  0  0  0  0  0  0  0  0
   -1.2525   -2.0569    0.6865 C   0  0  0  0  0  0  0  0  0  0  0  0
   -0.3178   -2.8268    0.8335 O   0  0  0  0  0  0  0  0  0  0  0  0
   -1.0308   -0.7411    0.3346 N   0  0  0  0  0  0  0  0  0  0  0  0
   -1.8501   -0.1456    0.2600 H   0  0  0  0  0  0  0  0  0  0  0  0
    0.2827   -0.0752    0.4110 C   0  0  1  0  0  0  0  0  0  0  0  0
    1.0673   -0.8214    0.5740 H   0  0  0  0  0  0  0  0  0  0  0  0
    0.5763    0.5779   -0.9491 C   0  0  0  0  0  0  0  0  0  0  0  0
    1.6015    0.9630   -0.9510 H   0  0  0  0  0  0  0  0  0  0  0  0
    0.5091   -0.1853   -1.7318 H   0  0  0  0  0  0  0  0  0  0  0  0
   -0.3328    1.6495   -1.2499 O   0  0  0  0  0  0  0  0  0  0  0  0
   -0.2041    1.9545   -2.1671 H   0  0  0  0  0  0  0  0  0  0  0  0
    0.3854    0.8972    1.6068 C   0  0  0  0  0  0  0  0  0  0  0  0
    0.4501    0.4600    2.7476 O   0  0  0  0  0  0  0  0  0  0  0  0
    0.3286    2.2671    1.4311 N   0  0  0  0  0  0  0  0  0  0  0  0
    0.1039    2.5803    0.4866 H   0  0  0  0  0  0  0  0  0  0  0  0
    0.2866    3.2231    2.5300 C   0  0  0  0  0  0  0  0  0  0  0  0
    1.1594    3.0984    3.1796 H   0  0  0  0  0  0  0  0  0  0  0  0
    0.2908    4.2458    2.1413 H   0  0  0  0  0  0  0  0  0  0  0  0
   -0.6199    3.0810    3.1272 H   0  0  0  0  0  0  0  0  0  0  0  0
  1  2  1  0  0  0  0
  2  3  1  0  0  0  0
  2  4  1  0  0  0  0
  2  5  1  0  0  0  0
  5  6  2  0  0  0  0
  5  7  1  0  0  0  0
  7  8  1  0  0  0  0
  7  9  1  0  0  0  0
  9 10  1  0  0  0  0
  9 11  1  0  0  0  0
  9 16  1  0  0  0  0
 11 12  1  0  0  0  0
 11 13  1  0  0  0  0
 11 14  1  0  0  0  0
 14 15  1  0  0  0  0
 16 17  2  0  0  0  0
 16 18  1  0  0  0  0
 18 19  1  0  0  0  0
 18 20  1  0  0  0  0
 20 21  1  0  0  0  0
 20 22  1  0  0  0  0
 20 23  1  0  0  0  0
M  END
$$$$

  -OEChem-01062216093D

 23 22  0     1  0  0  0  0  0999 V2000
   -2.6690   -3.6523    1.0872 H   0  0  0  0  0  0  0  0  0  0  0  0
   -2.6757   -2.6004    0.7877 C   0  0  0  0  0  0  0  0  0  0  0  0
   -3.2403   -2.0285    1.5280 H   0  0  0  0  0  0  0  0  0  0  0  0
   -3.1667   -2.5136   -0.1843 H   0  0  0  0  0  0  0  0  0  0  0  0
   -1.2557   -2.0736    0.7006 C   0  0  0  0  0  0  0  0  0  0  0  0
   -0.3177   -2.8265    0.9004 O   0  0  0  0  0  0  0  0  0  0  0  0
   -1.0395   -0.7572    0.3484 N   0  0  0  0  0  0  0  0  0  0  0  0
   -1.8625   -0.1782    0.2112 H   0  0  0  0  0  0  0  0  0  0  0  0
    0.2637   -0.0733    0.4358 C   0  0  1  0  0  0  0  0  0  0  0  0
    1.0561   -0.8103    0.6044 H   0  0  0  0  0  0  0  0  0  0  0  0
    0.5581    0.5827   -0.9225 C   0  0  0  0  0  0  0  0  0  0  0  0
    1.5770    0.9842   -0.9128 H   0  0  0  0  0  0  0  0  0  0  0  0
    0.5121   -0.1817   -1.7054 H   0  0  0  0  0  0  0  0  0  0  0  0
   -0.3629    1.6416   -1.2354 O   0  0  0  0  0  0  0  0  0  0  0  0
   -0.2017    1.9720   -2.1387 H   0  0  0  0  0  0  0  0  0  0  0  0
    0.3448    0.9051    1.6271 C   0  0  0  0  0  0  0  0  0  0  0  0
    0.6886    0.5048    2.7307 O   0  0  0  0  0  0  0  0  0  0  0  0
   -0.0282    2.2290    1.4945 N   0  0  0  0  0  0  0  0  0  0  0  0
   -0.3334    2.5166    0.5644 H   0  0  0  0  0  0  0  0  0  0  0  0
   -0.0262    3.1933    2.5866 C   0  0  0  0  0  0  0  0  0  0  0  0
    0.9773    3.2851    3.0149 H   0  0  0  0  0  0  0  0  0  0  0  0
   -0.3374    4.1770    2.2226 H   0  0  0  0  0  0  0  0  0  0  0  0
   -0.7188    2.8803    3.3748 H   0  0  0  0  0  0  0  0  0  0  0  0
  1  2  1  0  0  0  0
  2  3  1  0  0  0  0
  2  4  1  0  0  0  0
  2  5  1  0  0  0  0
  5  6  2  0  0  0  0
  5  7  1  0  0  0  0
  7  8  1  0  0  0  0
  7  9  1  0  0  0  0
  9 10  1  0  0  0  0
  9 11  1  0  0  0  0
  9 16  1  0  0  0  0
 11 12  1  0  0  0  0
 11 13  1  0  0  0  0
 11 14  1  0  0  0  0
 14 15  1  0  0  0  0
 16 17  2  0  0  0  0
 16 18  1  0  0  0  0
 18 19  1  0  0  0  0
 18 20  1  0  0  0  0
 20 21  1  0  0  0  0
 20 22  1  0  0  0  0
 20 23  1  0  0  0  0
M  END
$$$$

  -OEChem-01062216093D

 23 22  0     1  0  0  0  0  0999 V2000
   -2.6668   -3.7145    1.0022 H   0  0  0  0  0  0  0  0  0  0  0  0
   -2.6798   -2.6575    0.7217 C   0  0  0  0  0  0  0  0  0  0  0  0
   -3.2912   -2.1103    1.4432 H   0  0  0  0  0  0  0  0  0  0  0  0
   -3.1244   -2.5624   -0.2717 H   0  0  0  0  0  0  0  0  0  0  0  0
   -1.2677   -2.1029    0.7146 C   0  0  0  0  0  0  0  0  0  0  0  0
   -0.3300   -2.8333    0.9846 O   0  0  0  0  0  0  0  0  0  0  0  0
   -1.0558   -0.7841    0.3684 N   0  0  0  0  0  0  0  0  0  0  0  0
   -1.8764   -0.2243    0.1571 H   0  0  0  0  0  0  0  0  0  0  0  0
    0.2380   -0.0843    0.4756 C   0  0  1  0  0  0  0  0  0  0  0  0
    1.0376   -0.8139    0.6436 H   0  0  0  0  0  0  0  0  0  0  0  0
    0.5335    0.5955   -0.8692 C   0  0  0  0  0  0  0  0  0  0  0  0
    1.5456    1.0131   -0.8438 H   0  0  0  0  0  0  0  0  0  0  0  0
    0.5052   -0.1552   -1.6661 H   0  0  0  0  0  0  0  0  0  0  0  0
   -0.4025    1.6455   -1.1668 O   0  0  0  0  0  0  0  0  0  0  0  0
   -0.2114    2.0274   -2.0436 H   0  0  0  0  0  0  0  0  0  0  0  0
    0.2966    0.8947    1.6663 C   0  0  0  0  0  0  0  0  0  0  0  0
    0.9192    0.6034    2.6781 O   0  0  0  0  0  0  0  0  0  0  0  0
   -0.3640    2.1080    1.6180 N   0  0  0  0  0  0  0  0  0  0  0  0
   -0.7419    2.3650    0.7061 H   0  0  0  0  0  0  0  0  0  0  0  0
   -0.2814    3.1147    2.6681 C   0  0  0  0  0  0  0  0  0  0  0  0
    0.7510    3.4590    2.7886 H   0  0  0  0  0  0  0  0  0  0  0  0
   -0.9079    3.9756    2.4167 H   0  0  0  0  0  0  0  0  0  0  0  0
   -0.6291    2.7028    3.6213 H   0  0  0  0  0  0  0  0  0  0  0  0
  1  2  1  0  0  0  0
  2  3  1  0  0  0  0
  2  4  1  0  0  0  0
  2  5  1  0  0  0  0
  5  6  2  0  0  0  0
  5  7  1  0  0  0  0
  7  8  1  0  0  0  0
  7  9  1  0  0  0  0
  9 10  1  0  0  0  0
  9 11  1  0  0  0  0
  9 16  1  0  0  0  0
 11 12  1  0  0  0  0
 11 13  1  0  0  0  0
 11 14  1  0  0  0  0
 14 15  1  0  0  0  0
 16 17  2  0  0  0  0
 16 18  1  0  0  0  0
 18 19  1  0  0  0  0
 18 20  1  0  0  0  0
 20 21  1  0  0  0  0
 20 22  1  0  0  0  0
 20 23  1  0  0  0  0
M  END
$$$$

  -OEChem-01062216093D

 23 22  0     1  0  0  0  0  0999 V2000
   -2.6657   -3.7615    0.9355 H   0  0  0  0  0  0  0  0  0  0  0  0
   -2.6795   -2.7025    0.6623 C   0  0  0  0  0  0  0  0  0  0  0  0
   -3.3370   -2.1698    1.3534 H   0  0  0  0  0  0  0  0  0  0  0  0
   -3.0719   -2.6062   -0.3528 H   0  0  0  0  0  0  0  0  0  0  0  0
   -1.2774   -2.1275    0.7352 C   0  0  0  0  0  0  0  0  0  0  0  0
   -0.3482   -2.8395    1.0740 O   0  0  0  0  0  0  0  0  0  0  0  0
   -1.0628   -0.8084    0.3931 N   0  0  0  0  0  0  0  0  0  0  0  0
   -1.8717   -0.2647    0.1079 H   0  0  0  0  0  0  0  0  0  0  0  0
    0.2293   -0.1053    0.5074 C   0  0  1  0  0  0  0  0  0  0  0  0
    1.0342   -0.8330    0.6585 H   0  0  0  0  0  0  0  0  0  0  0  0
    0.5010    0.6034   -0.8246 C   0  0  0  0  0  0  0  0  0  0  0  0
    1.5085    1.0322   -0.8030 H   0  0  0  0  0  0  0  0  0  0  0  0
    0.4682   -0.1273   -1.6395 H   0  0  0  0  0  0  0  0  0  0  0  0
   -0.4533    1.6493   -1.0739 O   0  0  0  0  0  0  0  0  0  0  0  0
   -0.2524    2.0927   -1.9189 H   0  0  0  0  0  0  0  0  0  0  0  0
    0.2955    0.8748    1.6948 C   0  0  0  0  0  0  0  0  0  0  0  0
    1.1452    0.7389    2.5645 O   0  0  0  0  0  0  0  0  0  0  0  0
   -0.5921    1.9320    1.7795 N   0  0  0  0  0  0  0  0  0  0  0  0
   -1.0956    2.1357    0.9177 H   0  0  0  0  0  0  0  0  0  0  0  0
   -0.4941    2.9706    2.7969 C   0  0  0  0  0  0  0  0  0  0  0  0
    0.4514    3.5141    2.6999 H   0  0  0  0  0  0  0  0  0  0  0  0
   -1.3180    3.6825    2.6898 H   0  0  0  0  0  0  0  0  0  0  0  0
   -0.5472    2.5320    3.7989 H   0  0  0  0  0  0  0  0  0  0  0  0
  1  2  1  0  0  0  0
  2  3  1  0  0  0  0
  2  4  1  0  0  0  0
  2  5  1  0  0  0  0
  5  6  2  0  0  0  0
  5  7  1  0  0  0  0
  7  8  1  0  0  0  0
  7  9  1  0  0  0  0
  9 10  1  0  0  0  0
  9 11  1  0  0  0  0
  9 16  1  0  0  0  0
 11 12  1  0  0  0  0
 11 13  1  0  0  0  0
 11 14  1  0  0  0  0
 14 15  1  0  0  0  0
 16 17  2  0  0  0  0
 16 18  1  0  0  0  0
 18 19  1  0  0  0  0
 18 20  1  0  0  0  0
 20 21  1  0  0  0  0
 20 22  1  0  0  0  0
 20 23  1  0  0  0  0
M  END
$$$$

  -OEChem-01062216093D

 23 22  0     1  0  0  0  0  0999 V2000
   -2.6547   -3.8086    0.8645 H   0  0  0  0  0  0  0  0  0  0  0  0
   -2.6731   -2.7494    0.5920 C   0  0  0  0  0  0  0  0  0  0  0  0
   -3.3944   -2.2348    1.2314 H   0  0  0  0  0  0  0  0  0  0  0  0
   -2.9887   -2.6607   -0.4503 H   0  0  0  0  0  0  0  0  0  0  0  0
   -1.2950   -2.1408    0.7717 C   0  0  0  0  0  0  0  0  0  0  0  0
   -0.3840   -2.8233    1.2067 O   0  0  0  0  0  0  0  0  0  0  0  0
   -1.0790   -0.8231    0.4252 N   0  0  0  0  0  0  0  0  0  0  0  0
   -1.8552   -0.3159    0.0106 H   0  0  0  0  0  0  0  0  0  0  0  0
    0.2163   -0.1239    0.5310 C   0  0  1  0  0  0  0  0  0  0  0  0
    1.0213   -0.8545    0.6661 H   0  0  0  0  0  0  0  0  0  0  0  0
    0.4651    0.5977   -0.7960 C   0  0  0  0  0  0  0  0  0  0  0  0
    1.4711    1.0309   -0.7859 H   0  0  0  0  0  0  0  0  0  0  0  0
    0.4200   -0.1197   -1.6222 H   0  0  0  0  0  0  0  0  0  0  0  0
   -0.5006    1.6415   -1.0016 O   0  0  0  0  0  0  0  0  0  0  0  0
   -0.2843    2.1477   -1.8062 H   0  0  0  0  0  0  0  0  0  0  0  0
    0.3123    0.8625    1.7099 C   0  0  0  0  0  0  0  0  0  0  0  0
    1.3346    0.9201    2.3805 O   0  0  0  0  0  0  0  0  0  0  0  0
   -0.7243    1.7371    1.9831 N   0  0  0  0  0  0  0  0  0  0  0  0
   -1.4216    1.8251    1.2492 H   0  0  0  0  0  0  0  0  0  0  0  0
   -0.6263    2.7908    2.9848 C   0  0  0  0  0  0  0  0  0  0  0  0
    0.1790    3.4878    2.7306 H   0  0  0  0  0  0  0  0  0  0  0  0
   -1.5656    3.3492    3.0393 H   0  0  0  0  0  0  0  0  0  0  0  0
   -0.4231    2.3628    3.9721 H   0  0  0  0  0  0  0  0  0  0  0  0
  1  2  1  0  0  0  0
  2  3  1  0  0  0  0
  2  4  1  0  0  0  0
  2  5  1  0  0  0  0
  5  6  2  0  0  0  0
  5  7  1  0  0  0  0
  7  8  1  0  0  0  0
  7  9  1  0  0  0  0
  9 10  1  0  0  0  0
  9 11  1  0  0  0  0
  9 16  1  0  0  0  0
 11 12  1  0  0  0  0
 11 13  1  0  0  0  0
 11 14  1  0  0  0  0
 14 15  1  0  0  0  0
 16 17  2  0  0  0  0
 16 18  1  0  0  0  0
 18 19  1  0  0  0  0
 18 20  1  0  0  0  0
 20 21  1  0  0  0  0
 20 22  1  0  0  0  0
 20 23  1  0  0  0  0
M  END
$$$$

  -OEChem-01062216093D

 23 22  0     1  0  0  0  0  0999 V2000
   -2.6623   -3.8171    0.8502 H   0  0  0  0  0  0  0  0  0  0  0  0
   -2.6682   -2.7709    0.5311 C   0  0  0  0  0  0  0  0  0  0  0  0
   -3.4424   -2.2384    1.0886 H   0  0  0  0  0  0  0  0  0  0  0  0
   -2.9011   -2.7302   -0.5357 H   0  0  0  0  0  0  0  0  0  0  0  0
   -1.3138   -2.1387    0.7915 C   0  0  0  0  0  0  0  0  0  0  0  0
   -0.4246   -2.7978    1.3011 O   0  0  0  0  0  0  0  0  0  0  0  0
   -1.0954   -0.8219    0.4433 N   0  0  0  0  0  0  0  0  0  0  0  0
   -1.8346   -0.3473   -0.0678 H   0  0  0  0  0  0  0  0  0  0  0  0
    0.2069   -0.1330    0.5383 C   0  0  1  0  0  0  0  0  0  0  0  0
    1.0065   -0.8710    0.6640 H   0  0  0  0  0  0  0  0  0  0  0  0
    0.4463    0.5883   -0.7896 C   0  0  0  0  0  0  0  0  0  0  0  0
    1.4543    1.0170   -0.7898 H   0  0  0  0  0  0  0  0  0  0  0  0
    0.3874   -0.1252   -1.6180 H   0  0  0  0  0  0  0  0  0  0  0  0
   -0.5167    1.6362   -0.9750 O   0  0  0  0  0  0  0  0  0  0  0  0
   -0.2785    2.1829   -1.7456 H   0  0  0  0  0  0  0  0  0  0  0  0
    0.3351    0.8538    1.7134 C   0  0  0  0  0  0  0  0  0  0  0  0
    1.4413    1.1190    2.1668 O   0  0  0  0  0  0  0  0  0  0  0  0
   -0.7719    1.5231    2.2041 N   0  0  0  0  0  0  0  0  0  0  0  0
   -1.6405    1.3899    1.6975 H   0  0  0  0  0  0  0  0  0  0  0  0
   -0.6920    2.5682    3.2157 C   0  0  0  0  0  0  0  0  0  0  0  0
   -0.1015    3.4133    2.8469 H   0  0  0  0  0  0  0  0  0  0  0  0
   -1.6941    2.9278    3.4675 H   0  0  0  0  0  0  0  0  0  0  0  0
   -0.2248    2.1823    4.1278 H   0  0  0  0  0  0  0  0  0  0  0  0
  1  2  1  0  0  0  0
  2  3  1  0  0  0  0
  2  4  1  0  0  0  0
  2  5  1  0  0  0  0
  5  6  2  0  0  0  0
  5  7  1  0  0  0  0
  7  8  1  0  0  0  0
  7  9  1  0  0  0  0
  9 10  1  0  0  0  0
  9 11  1  0  0  0  0
  9 16  1  0  0  0  0
 11 12  1  0  0  0  0
 11 13  1  0  0  0  0
 11 14  1  0  0  0  0
 14 15  1  0  0  0  0
 16 17  2  0  0  0  0
 16 18  1  0  0  0  0
 18 19  1  0  0  0  0
 18 20  1  0  0  0  0
 20 21  1  0  0  0  0
 20 22  1  0  0  0  0
 20 23  1  0  0  0  0
M  END
$$$$

  -OEChem-01062216093D

 23 22  0     1  0  0  0  0  0999 V2000
   -2.6531   -3.8117    0.8292 H   0  0  0  0  0  0  0  0  0  0  0  0
   -2.6615   -2.7653    0.5108 C   0  0  0  0  0  0  0  0  0  0  0  0
   -3.4561   -2.2410    1.0471 H   0  0  0  0  0  0  0  0  0  0  0  0
   -2.8664   -2.7263   -0.5618 H   0  0  0  0  0  0  0  0  0  0  0  0
   -1.3210   -2.1197    0.8067 C   0  0  0  0  0  0  0  0  0  0  0  0
   -0.4482   -2.7592    1.3671 O   0  0  0  0  0  0  0  0  0  0  0  0
   -1.0981   -0.8080    0.4441 N   0  0  0  0  0  0  0  0  0  0  0  0
   -1.8207   -0.3472   -0.1038 H   0  0  0  0  0  0  0  0  0  0  0  0
    0.2088   -0.1260    0.5269 C   0  0  1  0  0  0  0  0  0  0  0  0
    1.0056   -0.8663    0.6548 H   0  0  0  0  0  0  0  0  0  0  0  0
    0.4377    0.5790   -0.8123 C   0  0  0  0  0  0  0  0  0  0  0  0
    1.4465    1.0056   -0.8284 H   0  0  0  0  0  0  0  0  0  0  0  0
    0.3683   -0.1424   -1.6331 H   0  0  0  0  0  0  0  0  0  0  0  0
   -0.5253    1.6264   -0.9960 O   0  0  0  0  0  0  0  0  0  0  0  0
   -0.2776    2.1882   -1.7523 H   0  0  0  0  0  0  0  0  0  0  0  0
    0.3526    0.8727    1.6903 C   0  0  0  0  0  0  0  0  0  0  0  0
    1.4554    1.3239    1.9742 O   0  0  0  0  0  0  0  0  0  0  0  0
   -0.7576    1.3214    2.3826 N   0  0  0  0  0  0  0  0  0  0  0  0
   -1.6535    0.9299    2.1126 H   0  0  0  0  0  0  0  0  0  0  0  0
   -0.6946    2.2889    3.4697 C   0  0  0  0  0  0  0  0  0  0  0  0
   -0.2433    3.2248    3.1238 H   0  0  0  0  0  0  0  0  0  0  0  0
   -1.7006    2.5071    3.8401 H   0  0  0  0  0  0  0  0  0  0  0  0
   -0.0978    1.8944    4.2987 H   0  0  0  0  0  0  0  0  0  0  0  0
  1  2  1  0  0  0  0
  2  3  1  0  0  0  0
  2  4  1  0  0  0  0
  2  5  1  0  0  0  0
  5  6  2  0  0  0  0
  5  7  1  0  0  0  0
  7  8  1  0  0  0  0
  7  9  1  0  0  0  0
  9 10  1  0  0  0  0
  9 11  1  0  0  0  0
  9 16  1  0  0  0  0
 11 12  1  0  0  0  0
 11 13  1  0  0  0  0
 11 14  1  0  0  0  0
 14 15  1  0  0  0  0
 16 17  2  0  0  0  0
 16 18  1  0  0  0  0
 18 19  1  0  0  0  0
 18 20  1  0  0  0  0
 20 21  1  0  0  0  0
 20 22  1  0  0  0  0
 20 23  1  0  0  0  0
M  END
$$$$

  -OEChem-01062216093D

 23 22  0     1  0  0  0  0  0999 V2000
   -2.6587   -3.7955    0.8378 H   0  0  0  0  0  0  0  0  0  0  0  0
   -2.6629   -2.7537    0.5048 C   0  0  0  0  0  0  0  0  0  0  0  0
   -3.4624   -2.2213    1.0256 H   0  0  0  0  0  0  0  0  0  0  0  0
   -2.8568   -2.7292   -0.5703 H   0  0  0  0  0  0  0  0  0  0  0  0
   -1.3247   -2.1054    0.8051 C   0  0  0  0  0  0  0  0  0  0  0  0
   -0.4583   -2.7357    1.3855 O   0  0  0  0  0  0  0  0  0  0  0  0
   -1.0978   -0.7961    0.4371 N   0  0  0  0  0  0  0  0  0  0  0  0
   -1.8209   -0.3292   -0.1057 H   0  0  0  0  0  0  0  0  0  0  0  0
    0.2102   -0.1157    0.5174 C   0  0  1  0  0  0  0  0  0  0  0  0
    1.0056   -0.8561    0.6511 H   0  0  0  0  0  0  0  0  0  0  0  0
    0.4372    0.5756   -0.8305 C   0  0  0  0  0  0  0  0  0  0  0  0
    1.4459    1.0017   -0.8540 H   0  0  0  0  0  0  0  0  0  0  0  0
    0.3662   -0.1540   -1.6440 H   0  0  0  0  0  0  0  0  0  0  0  0
   -0.5260    1.6209   -1.0234 O   0  0  0  0  0  0  0  0  0  0  0  0
   -0.2615    2.1947   -1.7645 H   0  0  0  0  0  0  0  0  0  0  0  0
    0.3528    0.8884    1.6778 C   0  0  0  0  0  0  0  0  0  0  0  0
    1.3974    1.5111    1.8282 O   0  0  0  0  0  0  0  0  0  0  0  0
   -0.6931    1.1052    2.5568 N   0  0  0  0  0  0  0  0  0  0  0  0
   -1.5099    0.5133    2.4446 H   0  0  0  0  0  0  0  0  0  0  0  0
   -0.6092    2.0000    3.7035 C   0  0  0  0  0  0  0  0  0  0  0  0
   -0.3613    3.0161    3.3789 H   0  0  0  0  0  0  0  0  0  0  0  0
   -1.5680    2.0310    4.2296 H   0  0  0  0  0  0  0  0  0  0  0  0
    0.1600    1.6556    4.4026 H   0  0  0  0  0  0  0  0  0  0  0  0
  1  2  1  0  0  0  0
  2  3  1  0  0  0  0
  2  4  1  0  0  0  0
  2  5  1  0  0  0  0
  5  6  2  0  0  0  0
  5  7  1  0  0  0  0
  7  8  1  0  0  0  0
  7  9  1  0  0  0  0
  9 10  1  0  0  0  0
  9 11  1  0  0  0  0
  9 16  1  0  0  0  0
 11 12  1  0  0  0  0
 11 13  1  0  0  0  0
 11 14  1  0  0  0  0
 14 15  1  0  0  0  0
 16 17  2  0  0  0  0
 16 18  1  0  0  0  0
 18 19  1  0  0  0  0
 18 20  1  0  0  0  0
 20 21  1  0  0  0  0
 20 22  1  0  0  0  0
 20 23  1  0  0  0  0
M  END
$$$$

  -OEChem-01062216093D

 23 22  0     1  0  0  0  0  0999 V2000
   -2.6649   -3.7757    0.8503 H   0  0  0  0  0  0  0  0  0  0  0  0
   -2.6652   -2.7374    0.5061 C   0  0  0  0  0  0  0  0  0  0  0  0
   -3.4663   -2.1971    1.0163 H   0  0  0  0  0  0  0  0  0  0  0  0
   -2.8537   -2.7247   -0.5701 H   0  0  0  0  0  0  0  0  0  0  0  0
   -1.3272   -2.0883    0.8063 C   0  0  0  0  0  0  0  0  0  0  0  0
   -0.4678   -2.7081    1.4082 O   0  0  0  0  0  0  0  0  0  0  0  0
   -1.0973   -0.7811    0.4351 N   0  0  0  0  0  0  0  0  0  0  0  0
   -1.8233   -0.3101   -0.1009 H   0  0  0  0  0  0  0  0  0  0  0  0
    0.2109   -0.1009    0.5110 C   0  0  1  0  0  0  0  0  0  0  0  0
    1.0061   -0.8402    0.6510 H   0  0  0  0  0  0  0  0  0  0  0  0
    0.4363    0.5738   -0.8466 C   0  0  0  0  0  0  0  0  0  0  0  0
    1.4450    0.9993   -0.8780 H   0  0  0  0  0  0  0  0  0  0  0  0
    0.3644   -0.1658   -1.6507 H   0  0  0  0  0  0  0  0  0  0  0  0
   -0.5284    1.6157   -1.0513 O   0  0  0  0  0  0  0  0  0  0  0  0
   -0.2501    2.1998   -1.7791 H   0  0  0  0  0  0  0  0  0  0  0  0
    0.3477    0.9052    1.6717 C   0  0  0  0  0  0  0  0  0  0  0  0
    1.2886    1.6895    1.7141 O   0  0  0  0  0  0  0  0  0  0  0  0
   -0.5637    0.8929    2.7121 N   0  0  0  0  0  0  0  0  0  0  0  0
   -1.2412    0.1364    2.7051 H   0  0  0  0  0  0  0  0  0  0  0  0
   -0.4371    1.7241    3.9020 C   0  0  0  0  0  0  0  0  0  0  0  0
   -0.4019    2.7837    3.6273 H   0  0  0  0  0  0  0  0  0  0  0  0
   -1.2941    1.5686    4.5643 H   0  0  0  0  0  0  0  0  0  0  0  0
    0.4766    1.4713    4.4502 H   0  0  0  0  0  0  0  0  0  0  0  0
  1  2  1  0  0  0  0
  2  3  1  0  0  0  0
  2  4  1  0  0  0  0
  2  5  1  0  0  0  0
  5  6  2  0  0  0  0
  5  7  1  0  0  0  0
  7  8  1  0  0  0  0
  7  9  1  0  0  0  0
  9 10  1  0  0  0  0
  9 11  1  0  0  0  0
  9 16  1  0  0  0  0
 11 12  1  0  0  0  0
 11 13  1  0  0  0  0
 11 14  1  0  0  0  0
 14 15  1  0  0  0  0
 16 17  2  0  0  0  0
 16 18  1  0  0  0  0
 18 19  1  0  0  0  0
 18 20  1  0  0  0  0
 20 21  1  0  0  0  0
 20 22  1  0  0  0  0
 20 23  1  0  0  0  0
M  END
$$$$

  -OEChem-01062216093D

 23 22  0     1  0  0  0  0  0999 V2000
   -2.6750   -3.7502    0.8869 H   0  0  0  0  0  0  0  0  0  0  0  0
   -2.6673   -2.7207    0.5179 C   0  0  0  0  0  0  0  0  0  0  0  0
   -3.4679   -2.1641    1.0111 H   0  0  0  0  0  0  0  0  0  0  0  0
   -2.8502   -2.7319   -0.5593 H   0  0  0  0  0  0  0  0  0  0  0  0
   -1.3278   -2.0714    0.8097 C   0  0  0  0  0  0  0  0  0  0  0  0
   -0.4725   -2.6799    1.4294 O   0  0  0  0  0  0  0  0  0  0  0  0
   -1.0977   -0.7654    0.4369 N   0  0  0  0  0  0  0  0  0  0  0  0
   -1.8278   -0.2907   -0.0904 H   0  0  0  0  0  0  0  0  0  0  0  0
    0.2104   -0.0864    0.5057 C   0  0  1  0  0  0  0  0  0  0  0  0
    1.0057   -0.8247    0.6476 H   0  0  0  0  0  0  0  0  0  0  0  0
    0.4335    0.5749   -0.8599 C   0  0  0  0  0  0  0  0  0  0  0  0
    1.4422    1.0006   -0.8943 H   0  0  0  0  0  0  0  0  0  0  0  0
    0.3623   -0.1723   -1.6572 H   0  0  0  0  0  0  0  0  0  0  0  0
   -0.5300    1.6154   -1.0765 O   0  0  0  0  0  0  0  0  0  0  0  0
   -0.2295    2.2171   -1.7804 H   0  0  0  0  0  0  0  0  0  0  0  0
    0.3396    0.9167    1.6703 C   0  0  0  0  0  0  0  0  0  0  0  0
    1.1327    1.8505    1.6272 O   0  0  0  0  0  0  0  0  0  0  0  0
   -0.3700    0.6941    2.8364 N   0  0  0  0  0  0  0  0  0  0  0  0
   -0.8775   -0.1854    2.8885 H   0  0  0  0  0  0  0  0  0  0  0  0
   -0.1913    1.4826    4.0487 C   0  0  0  0  0  0  0  0  0  0  0  0
   -0.3715    2.5436    3.8462 H   0  0  0  0  0  0  0  0  0  0  0  0
   -0.8960    1.1557    4.8194 H   0  0  0  0  0  0  0  0  0  0  0  0
    0.8265    1.3651    4.4352 H   0  0  0  0  0  0  0  0  0  0  0  0
  1  2  1  0  0  0  0
  2  3  1  0  0  0  0
  2  4  1  0  0  0  0
  2  5  1  0  0  0  0
  5  6  2  0  0  0  0
  5  7  1  0  0  0  0
  7  8  1  0  0  0  0
  7  9  1  0  0  0  0
  9 10  1  0  0  0  0
  9 11  1  0  0  0  0
  9 16  1  0  0  0  0
 11 12  1  0  0  0  0
 11 13  1  0  0  0  0
 11 14  1  0  0  0  0
 14 15  1  0  0  0  0
 16 17  2  0  0  0  0
 16 18  1  0  0  0  0
 18 19  1  0  0  0  0
 18 20  1  0  0  0  0
 20 21  1  0  0  0  0
 20 22  1  0  0  0  0
 20 23  1  0  0  0  0
M  END
$$$$

  -OEChem-01062216093D

 23 22  0     1  0  0  0  0  0999 V2000
   -2.6614   -3.7432    0.8862 H   0  0  0  0  0  0  0  0  0  0  0  0
   -2.6656   -2.7093    0.5294 C   0  0  0  0  0  0  0  0  0  0  0  0
   -3.4713   -2.1668    1.0300 H   0  0  0  0  0  0  0  0  0  0  0  0
   -2.8495   -2.7101   -0.5478 H   0  0  0  0  0  0  0  0  0  0  0  0
   -1.3328   -2.0495    0.8276 C   0  0  0  0  0  0  0  0  0  0  0  0
   -0.4824   -2.6425    1.4703 O   0  0  0  0  0  0  0  0  0  0  0  0
   -1.1042   -0.7456    0.4483 N   0  0  0  0  0  0  0  0  0  0  0  0
   -1.8328   -0.2745   -0.0844 H   0  0  0  0  0  0  0  0  0  0  0  0
    0.2067   -0.0739    0.5053 C   0  0  1  0  0  0  0  0  0  0  0  0
    1.0005   -0.8137    0.6486 H   0  0  0  0  0  0  0  0  0  0  0  0
    0.4278    0.5697   -0.8698 C   0  0  0  0  0  0  0  0  0  0  0  0
    1.4381    0.9909   -0.9096 H   0  0  0  0  0  0  0  0  0  0  0  0
    0.3532   -0.1865   -1.6580 H   0  0  0  0  0  0  0  0  0  0  0  0
   -0.5297    1.6127   -1.0996 O   0  0  0  0  0  0  0  0  0  0  0  0
   -0.1960    2.2424   -1.7629 H   0  0  0  0  0  0  0  0  0  0  0  0
    0.3339    0.9267    1.6716 C   0  0  0  0  0  0  0  0  0  0  0  0
    0.9504    1.9813    1.5679 O   0  0  0  0  0  0  0  0  0  0  0  0
   -0.1177    0.5363    2.9190 N   0  0  0  0  0  0  0  0  0  0  0  0
   -0.4698   -0.4166    2.9902 H   0  0  0  0  0  0  0  0  0  0  0  0
    0.1144    1.3006    4.1372 C   0  0  0  0  0  0  0  0  0  0  0  0
   -0.2871    2.3143    4.0357 H   0  0  0  0  0  0  0  0  0  0  0  0
   -0.3803    0.8183    4.9857 H   0  0  0  0  0  0  0  0  0  0  0  0
    1.1864    1.3650    4.3502 H   0  0  0  0  0  0  0  0  0  0  0  0
  1  2  1  0  0  0  0
  2  3  1  0  0  0  0
  2  4  1  0  0  0  0
  2  5  1  0  0  0  0
  5  6  2  0  0  0  0
  5  7  1  0  0  0  0
  7  8  1  0  0  0  0
  7  9  1  0  0  0  0
  9 10  1  0  0  0  0
  9 11  1  0  0  0  0
  9 16  1  0  0  0  0
 11 12  1  0  0  0  0
 11 13  1  0  0  0  0
 11 14  1  0  0  0  0
 14 15  1  0  0  0  0
 16 17  2  0  0  0  0
 16 18  1  0  0  0  0
 18 19  1  0  0  0  0
 18 20  1  0  0  0  0
 20 21  1  0  0  0  0
 20 22  1  0  0  0  0
 20 23  1  0  0  0  0
M  END
$$$$

  -OEChem-01062216093D

 23 22  0     1  0  0  0  0  0999 V2000
   -2.7245   -3.6626    1.0025 H   0  0  0  0  0  0  0  0  0  0  0  0
   -2.6874   -2.6585    0.5705 C   0  0  0  0  0  0  0  0  0  0  0  0
   -3.4870   -2.0566    1.0092 H   0  0  0  0  0  0  0  0  0  0  0  0
   -2.8469   -2.7333   -0.5078 H   0  0  0  0  0  0  0  0  0  0  0  0
   -1.3416   -2.0179    0.8521 C   0  0  0  0  0  0  0  0  0  0  0  0
   -0.5048   -2.6021    1.5221 O   0  0  0  0  0  0  0  0  0  0  0  0
   -1.0816   -0.7320    0.4330 N   0  0  0  0  0  0  0  0  0  0  0  0
   -1.7874   -0.2789   -0.1450 H   0  0  0  0  0  0  0  0  0  0  0  0
    0.2633   -0.1321    0.4226 C   0  0  1  0  0  0  0  0  0  0  0  0
    1.0298   -0.9044    0.5422 H   0  0  0  0  0  0  0  0  0  0  0  0
    0.4701    0.5065   -0.9583 C   0  0  0  0  0  0  0  0  0  0  0  0
    1.5016    0.8635   -1.0480 H   0  0  0  0  0  0  0  0  0  0  0  0
    0.3071   -0.2399   -1.7424 H   0  0  0  0  0  0  0  0  0  0  0  0
   -0.4310    1.6042   -1.1388 O   0  0  0  0  0  0  0  0  0  0  0  0
   -0.2341    2.2834   -0.4570 H   0  0  0  0  0  0  0  0  0  0  0  0
    0.4419    0.8700    1.5797 C   0  0  0  0  0  0  0  0  0  0  0  0
    0.6571    2.0631    1.3854 O   0  0  0  0  0  0  0  0  0  0  0  0
    0.3000    0.4052    2.8726 N   0  0  0  0  0  0  0  0  0  0  0  0
    0.0874   -0.5869    2.9799 H   0  0  0  0  0  0  0  0  0  0  0  0
    0.3906    1.2503    4.0556 C   0  0  0  0  0  0  0  0  0  0  0  0
   -0.3879    2.0201    4.0371 H   0  0  0  0  0  0  0  0  0  0  0  0
    0.2604    0.6481    4.9599 H   0  0  0  0  0  0  0  0  0  0  0  0
    1.3695    1.7387    4.1040 H   0  0  0  0  0  0  0  0  0  0  0  0
  1  2  1  0  0  0  0
  2  3  1  0  0  0  0
  2  4  1  0  0  0  0
  2  5  1  0  0  0  0
  5  6  2  0  0  0  0
  5  7  1  0  0  0  0
  7  8  1  0  0  0  0
  7  9  1  0  0  0  0
  9 10  1  0  0  0  0
  9 11  1  0  0  0  0
  9 16  1  0  0  0  0
 11 12  1  0  0  0  0
 11 13  1  0  0  0  0
 11 14  1  0  0  0  0
 14 15  1  0  0  0  0
 16 17  2  0  0  0  0
 16 18  1  0  0  0  0
 18 19  1  0  0  0  0
 18 20  1  0  0  0  0
 20 21  1  0  0  0  0
 20 22  1  0  0  0  0
 20 23  1  0  0  0  0
M  END
$$$$

  -OEChem-01062216093D

 23 22  0     1  0  0  0  0  0999 V2000
   -2.7333   -3.6323    1.0644 H   0  0  0  0  0  0  0  0  0  0  0  0
   -2.6851   -2.6470    0.5921 C   0  0  0  0  0  0  0  0  0  0  0  0
   -3.4799   -2.0203    1.0041 H   0  0  0  0  0  0  0  0  0  0  0  0
   -2.8422   -2.7636   -0.4830 H   0  0  0  0  0  0  0  0  0  0  0  0
   -1.3334   -2.0097    0.8521 C   0  0  0  0  0  0  0  0  0  0  0  0
   -0.4819   -2.6045    1.4946 O   0  0  0  0  0  0  0  0  0  0  0  0
   -1.0765   -0.7240    0.4292 N   0  0  0  0  0  0  0  0  0  0  0  0
   -1.7896   -0.2639   -0.1340 H   0  0  0  0  0  0  0  0  0  0  0  0
    0.2675   -0.1251    0.4190 C   0  0  1  0  0  0  0  0  0  0  0  0
    1.0352   -0.8965    0.5367 H   0  0  0  0  0  0  0  0  0  0  0  0
    0.4734    0.5067   -0.9658 C   0  0  0  0  0  0  0  0  0  0  0  0
    1.5046    0.8644   -1.0544 H   0  0  0  0  0  0  0  0  0  0  0  0
    0.3133   -0.2438   -1.7468 H   0  0  0  0  0  0  0  0  0  0  0  0
   -0.4273    1.6032   -1.1563 O   0  0  0  0  0  0  0  0  0  0  0  0
   -0.2734    2.2601   -0.4404 H   0  0  0  0  0  0  0  0  0  0  0  0
    0.4477    0.8808    1.5728 C   0  0  0  0  0  0  0  0  0  0  0  0
    0.4512    2.0953    1.3902 O   0  0  0  0  0  0  0  0  0  0  0  0
    0.6188    0.3828    2.8495 N   0  0  0  0  0  0  0  0  0  0  0  0
    0.5152   -0.6257    2.9622 H   0  0  0  0  0  0  0  0  0  0  0  0
    0.7419    1.2209    4.0348 C   0  0  0  0  0  0  0  0  0  0  0  0
   -0.1562    1.8331    4.1671 H   0  0  0  0  0  0  0  0  0  0  0  0
    0.8708    0.5983    4.9255 H   0  0  0  0  0  0  0  0  0  0  0  0
    1.6105    1.8820    3.9478 H   0  0  0  0  0  0  0  0  0  0  0  0
  1  2  1  0  0  0  0
  2  3  1  0  0  0  0
  2  4  1  0  0  0  0
  2  5  1  0  0  0  0
  5  6  2  0  0  0  0
  5  7  1  0  0  0  0
  7  8  1  0  0  0  0
  7  9  1  0  0  0  0
  9 10  1  0  0  0  0
  9 11  1  0  0  0  0
  9 16  1  0  0  0  0
 11 12  1  0  0  0  0
 11 13  1  0  0  0  0
 11 14  1  0  0  0  0
 14 15  1  0  0  0  0
 16 17  2  0  0  0  0
 16 18  1  0  0  0  0
 18 19  1  0  0  0  0
 18 20  1  0  0  0  0
 20 21  1  0  0  0  0
 20 22  1  0  0  0  0
 20 23  1  0  0  0  0
M  END
$$$$

  -OEChem-01062216093D

 23 22  0     1  0  0  0  0  0999 V2000
   -2.6595   -3.7001    0.9069 H   0  0  0  0  0  0  0  0  0  0  0  0
   -2.6769   -2.6433    0.6257 C   0  0  0  0  0  0  0  0  0  0  0  0
   -3.4039   -2.1232    1.2542 H   0  0  0  0  0  0  0  0  0  0  0  0
   -2.9850   -2.5624   -0.4196 H   0  0  0  0  0  0  0  0  0  0  0  0
   -1.3016   -2.0306    0.8100 C   0  0  0  0  0  0  0  0  0  0  0  0
   -0.3979   -2.6836    1.3085 O   0  0  0  0  0  0  0  0  0  0  0  0
   -1.0777   -0.7180    0.4575 N   0  0  0  0  0  0  0  0  0  0  0  0
   -1.8494   -0.1908    0.0536 H   0  0  0  0  0  0  0  0  0  0  0  0
    0.2343   -0.0554    0.4906 C   0  0  1  0  0  0  0  0  0  0  0  0
    1.0241   -0.8042    0.6035 H   0  0  0  0  0  0  0  0  0  0  0  0
    0.4536    0.5732   -0.8948 C   0  0  0  0  0  0  0  0  0  0  0  0
    1.4684    0.9826   -0.9355 H   0  0  0  0  0  0  0  0  0  0  0  0
    0.3745   -0.1962   -1.6700 H   0  0  0  0  0  0  0  0  0  0  0  0
   -0.4813    1.6252   -1.1640 O   0  0  0  0  0  0  0  0  0  0  0  0
   -0.1577    2.2069   -1.8730 H   0  0  0  0  0  0  0  0  0  0  0  0
    0.3943    0.9138    1.6818 C   0  0  0  0  0  0  0  0  0  0  0  0
    0.1822    2.1178    1.6150 O   0  0  0  0  0  0  0  0  0  0  0  0
    0.9032    0.4012    2.8616 N   0  0  0  0  0  0  0  0  0  0  0  0
    0.9697   -0.6131    2.9246 H   0  0  0  0  0  0  0  0  0  0  0  0
    1.0876    1.1959    4.0695 C   0  0  0  0  0  0  0  0  0  0  0  0
    0.1302    1.6030    4.4108 H   0  0  0  0  0  0  0  0  0  0  0  0
    1.5058    0.5768    4.8688 H   0  0  0  0  0  0  0  0  0  0  0  0
    1.7767    2.0257    3.8807 H   0  0  0  0  0  0  0  0  0  0  0  0
  1  2  1  0  0  0  0
  2  3  1  0  0  0  0
  2  4  1  0  0  0  0
  2  5  1  0  0  0  0
  5  6  2  0  0  0  0
  5  7  1  0  0  0  0
  7  8  1  0  0  0  0
  7  9  1  0  0  0  0
  9 10  1  0  0  0  0
  9 11  1  0  0  0  0
  9 16  1  0  0  0  0
 11 12  1  0  0  0  0
 11 13  1  0  0  0  0
 11 14  1  0  0  0  0
 14 15  1  0  0  0  0
 16 17  2  0  0  0  0
 16 18  1  0  0  0  0
 18 19  1  0  0  0  0
 18 20  1  0  0  0  0
 20 21  1  0  0  0  0
 20 22  1  0  0  0  0
 20 23  1  0  0  0  0
M  END
$$$$

  -OEChem-01062216093D

 23 22  0     1  0  0  0  0  0999 V2000
   -2.6808   -3.6507    1.0112 H   0  0  0  0  0  0  0  0  0  0  0  0
   -2.6843   -2.5987    0.7129 C   0  0  0  0  0  0  0  0  0  0  0  0
   -3.3391   -2.0428    1.3883 H   0  0  0  0  0  0  0  0  0  0  0  0
   -3.0735   -2.5226   -0.3052 H   0  0  0  0  0  0  0  0  0  0  0  0
   -1.2780   -2.0332    0.7740 C   0  0  0  0  0  0  0  0  0  0  0  0
   -0.3509   -2.7317    1.1538 O   0  0  0  0  0  0  0  0  0  0  0  0
   -1.0492   -0.7199    0.4263 N   0  0  0  0  0  0  0  0  0  0  0  0
   -1.8483   -0.1467    0.1629 H   0  0  0  0  0  0  0  0  0  0  0  0
    0.2623   -0.0562    0.4526 C   0  0  1  0  0  0  0  0  0  0  0  0
    1.0477   -0.8097    0.5621 H   0  0  0  0  0  0  0  0  0  0  0  0
    0.5004    0.5927   -0.9197 C   0  0  0  0  0  0  0  0  0  0  0  0
    1.5198    0.9912   -0.9484 H   0  0  0  0  0  0  0  0  0  0  0  0
    0.4185   -0.1669   -1.7040 H   0  0  0  0  0  0  0  0  0  0  0  0
   -0.4206    1.6561   -1.1864 O   0  0  0  0  0  0  0  0  0  0  0  0
   -0.1541    2.1639   -1.9715 H   0  0  0  0  0  0  0  0  0  0  0  0
    0.4222    0.9079    1.6477 C   0  0  0  0  0  0  0  0  0  0  0  0
   -0.1798    1.9712    1.7285 O   0  0  0  0  0  0  0  0  0  0  0  0
    1.2124    0.5171    2.7147 N   0  0  0  0  0  0  0  0  0  0  0  0
    1.5488   -0.4428    2.7063 H   0  0  0  0  0  0  0  0  0  0  0  0
    1.3229    1.2847    3.9493 C   0  0  0  0  0  0  0  0  0  0  0  0
    0.3478    1.3615    4.4416 H   0  0  0  0  0  0  0  0  0  0  0  0
    2.0212    0.7969    4.6360 H   0  0  0  0  0  0  0  0  0  0  0  0
    1.6936    2.2940    3.7412 H   0  0  0  0  0  0  0  0  0  0  0  0
  1  2  1  0  0  0  0
  2  3  1  0  0  0  0
  2  4  1  0  0  0  0
  2  5  1  0  0  0  0
  5  6  2  0  0  0  0
  5  7  1  0  0  0  0
  7  8  1  0  0  0  0
  7  9  1  0  0  0  0
  9 10  1  0  0  0  0
  9 11  1  0  0  0  0
  9 16  1  0  0  0  0
 11 12  1  0  0  0  0
 11 13  1  0  0  0  0
 11 14  1  0  0  0  0
 14 15  1  0  0  0  0
 16 17  2  0  0  0  0
 16 18  1  0  0  0  0
 18 19  1  0  0  0  0
 18 20  1  0  0  0  0
 20 21  1  0  0  0  0
 20 22  1  0  0  0  0
 20 23  1  0  0  0  0
M  END
$$$$

  -OEChem-01062216093D

 23 22  0     1  0  0  0  0  0999 V2000
   -2.6850   -3.6208    1.0789 H   0  0  0  0  0  0  0  0  0  0  0  0
   -2.6843   -2.5685    0.7812 C   0  0  0  0  0  0  0  0  0  0  0  0
   -3.2804   -1.9990    1.4986 H   0  0  0  0  0  0  0  0  0  0  0  0
   -3.1374   -2.4820   -0.2093 H   0  0  0  0  0  0  0  0  0  0  0  0
   -1.2646   -2.0350    0.7488 C   0  0  0  0  0  0  0  0  0  0  0  0
   -0.3305   -2.7600    1.0547 O   0  0  0  0  0  0  0  0  0  0  0  0
   -1.0325   -0.7256    0.3882 N   0  0  0  0  0  0  0  0  0  0  0  0
   -1.8407   -0.1247    0.2377 H   0  0  0  0  0  0  0  0  0  0  0  0
    0.2807   -0.0639    0.4173 C   0  0  1  0  0  0  0  0  0  0  0  0
    1.0625   -0.8195    0.5363 H   0  0  0  0  0  0  0  0  0  0  0  0
    0.5376    0.6044   -0.9405 C   0  0  0  0  0  0  0  0  0  0  0  0
    1.5606    0.9943   -0.9571 H   0  0  0  0  0  0  0  0  0  0  0  0
    0.4531   -0.1424   -1.7369 H   0  0  0  0  0  0  0  0  0  0  0  0
   -0.3749    1.6782   -1.1935 O   0  0  0  0  0  0  0  0  0  0  0  0
   -0.1512    2.1432   -2.0178 H   0  0  0  0  0  0  0  0  0  0  0  0
    0.4247    0.9103    1.6046 C   0  0  0  0  0  0  0  0  0  0  0  0
   -0.4167    1.7705    1.8369 O   0  0  0  0  0  0  0  0  0  0  0  0
    1.4269    0.7002    2.5363 N   0  0  0  0  0  0  0  0  0  0  0  0
    1.9895   -0.1387    2.4262 H   0  0  0  0  0  0  0  0  0  0  0  0
    1.5179    1.4411    3.7889 C   0  0  0  0  0  0  0  0  0  0  0  0
    0.6463    1.2365    4.4194 H   0  0  0  0  0  0  0  0  0  0  0  0
    2.4192    1.1482    4.3361 H   0  0  0  0  0  0  0  0  0  0  0  0
    1.5682    2.5180    3.5955 H   0  0  0  0  0  0  0  0  0  0  0  0
  1  2  1  0  0  0  0
  2  3  1  0  0  0  0
  2  4  1  0  0  0  0
  2  5  1  0  0  0  0
  5  6  2  0  0  0  0
  5  7  1  0  0  0  0
  7  8  1  0  0  0  0
  7  9  1  0  0  0  0
  9 10  1  0  0  0  0
  9 11  1  0  0  0  0
  9 16  1  0  0  0  0
 11 12  1  0  0  0  0
 11 13  1  0  0  0  0
 11 14  1  0  0  0  0
 14 15  1  0  0  0  0
 16 17  2  0  0  0  0
 16 18  1  0  0  0  0
 18 19  1  0  0  0  0
 18 20  1  0  0  0  0
 20 21  1  0  0  0  0
 20 22  1  0  0  0  0
 20 23  1  0  0  0  0
M  END
$$$$

  -OEChem-01062216093D

 23 22  0     1  0  0  0  0  0999 V2000
   -2.6816   -3.6015    1.1326 H   0  0  0  0  0  0  0  0  0  0  0  0
   -2.6793   -2.5511    0.8290 C   0  0  0  0  0  0  0  0  0  0  0  0
   -3.2215   -1.9667    1.5763 H   0  0  0  0  0  0  0  0  0  0  0  0
   -3.1881   -2.4613   -0.1337 H   0  0  0  0  0  0  0  0  0  0  0  0
   -1.2547   -2.0438    0.7117 C   0  0  0  0  0  0  0  0  0  0  0  0
   -0.3178   -2.7889    0.9538 O   0  0  0  0  0  0  0  0  0  0  0  0
   -1.0230   -0.7364    0.3440 N   0  0  0  0  0  0  0  0  0  0  0  0
   -1.8312   -0.1192    0.2912 H   0  0  0  0  0  0  0  0  0  0  0  0
    0.2905   -0.0747    0.3911 C   0  0  1  0  0  0  0  0  0  0  0  0
    1.0726   -0.8275    0.5243 H   0  0  0  0  0  0  0  0  0  0  0  0
    0.5618    0.6118   -0.9532 C   0  0  0  0  0  0  0  0  0  0  0  0
    1.5854    1.0004   -0.9593 H   0  0  0  0  0  0  0  0  0  0  0  0
    0.4795   -0.1238   -1.7602 H   0  0  0  0  0  0  0  0  0  0  0  0
   -0.3506    1.6892   -1.1917 O   0  0  0  0  0  0  0  0  0  0  0  0
   -0.1592    2.1315   -2.0365 H   0  0  0  0  0  0  0  0  0  0  0  0
    0.4081    0.9067    1.5747 C   0  0  0  0  0  0  0  0  0  0  0  0
   -0.5556    1.5692    1.9445 O   0  0  0  0  0  0  0  0  0  0  0  0
    1.5525    0.9108    2.3538 N   0  0  0  0  0  0  0  0  0  0  0  0
    2.2722    0.2306    2.1279 H   0  0  0  0  0  0  0  0  0  0  0  0
    1.6629    1.6591    3.6003 C   0  0  0  0  0  0  0  0  0  0  0  0
    0.9437    1.2851    4.3366 H   0  0  0  0  0  0  0  0  0  0  0  0
    2.6700    1.5561    4.0154 H   0  0  0  0  0  0  0  0  0  0  0  0
    1.4692    2.7230    3.4276 H   0  0  0  0  0  0  0  0  0  0  0  0
  1  2  1  0  0  0  0
  2  3  1  0  0  0  0
  2  4  1  0  0  0  0
  2  5  1  0  0  0  0
  5  6  2  0  0  0  0
  5  7  1  0  0  0  0
  7  8  1  0  0  0  0
  7  9  1  0  0  0  0
  9 10  1  0  0  0  0
  9 11  1  0  0  0  0
  9 16  1  0  0  0  0
 11 12  1  0  0  0  0
 11 13  1  0  0  0  0
 11 14  1  0  0  0  0
 14 15  1  0  0  0  0
 16 17  2  0  0  0  0
 16 18  1  0  0  0  0
 18 19  1  0  0  0  0
 18 20  1  0  0  0  0
 20 21  1  0  0  0  0
 20 22  1  0  0  0  0
 20 23  1  0  0  0  0
M  END
$$$$

  -OEChem-01062216093D

 23 22  0     1  0  0  0  0  0999 V2000
   -2.6762   -3.6063    1.1493 H   0  0  0  0  0  0  0  0  0  0  0  0
   -2.6778   -2.5564    0.8435 C   0  0  0  0  0  0  0  0  0  0  0  0
   -3.1911   -1.9677    1.6079 H   0  0  0  0  0  0  0  0  0  0  0  0
   -3.2178   -2.4647   -0.1018 H   0  0  0  0  0  0  0  0  0  0  0  0
   -1.2548   -2.0579    0.6781 C   0  0  0  0  0  0  0  0  0  0  0  0
   -0.3163   -2.8132    0.8795 O   0  0  0  0  0  0  0  0  0  0  0  0
   -1.0276   -0.7490    0.3121 N   0  0  0  0  0  0  0  0  0  0  0  0
   -1.8351   -0.1285    0.3141 H   0  0  0  0  0  0  0  0  0  0  0  0
    0.2857   -0.0874    0.3847 C   0  0  1  0  0  0  0  0  0  0  0  0
    1.0686   -0.8378    0.5274 H   0  0  0  0  0  0  0  0  0  0  0  0
    0.5704    0.6167   -0.9468 C   0  0  0  0  0  0  0  0  0  0  0  0
    1.5936    1.0063   -0.9397 H   0  0  0  0  0  0  0  0  0  0  0  0
    0.4952   -0.1075   -1.7646 H   0  0  0  0  0  0  0  0  0  0  0  0
   -0.3433    1.6958   -1.1744 O   0  0  0  0  0  0  0  0  0  0  0  0
   -0.1622    2.1357   -2.0230 H   0  0  0  0  0  0  0  0  0  0  0  0
    0.3836    0.8949    1.5696 C   0  0  0  0  0  0  0  0  0  0  0  0
   -0.6253    1.3842    2.0680 O   0  0  0  0  0  0  0  0  0  0  0  0
    1.6056    1.1270    2.1771 N   0  0  0  0  0  0  0  0  0  0  0  0
    2.4102    0.6190    1.8230 H   0  0  0  0  0  0  0  0  0  0  0  0
    1.7571    1.9327    3.3827 C   0  0  0  0  0  0  0  0  0  0  0  0
    1.1974    1.4897    4.2133 H   0  0  0  0  0  0  0  0  0  0  0  0
    2.8117    1.9914    3.6684 H   0  0  0  0  0  0  0  0  0  0  0  0
    1.3887    2.9498    3.2122 H   0  0  0  0  0  0  0  0  0  0  0  0
  1  2  1  0  0  0  0
  2  3  1  0  0  0  0
  2  4  1  0  0  0  0
  2  5  1  0  0  0  0
  5  6  2  0  0  0  0
  5  7  1  0  0  0  0
  7  8  1  0  0  0  0
  7  9  1  0  0  0  0
  9 10  1  0  0  0  0
  9 11  1  0  0  0  0
  9 16  1  0  0  0  0
 11 12  1  0  0  0  0
 11 13  1  0  0  0  0
 11 14  1  0  0  0  0
 14 15  1  0  0  0  0
 16 17  2  0  0  0  0
 16 18  1  0  0  0  0
 18 19  1  0  0  0  0
 18 20  1  0  0  0  0
 20 21  1  0  0  0  0
 20 22  1  0  0  0  0
 20 23  1  0  0  0  0
M  END
$$$$

  -OEChem-01062216093D

 23 22  0     1  0  0  0  0  0999 V2000
   -2.6804   -3.6129    1.1328 H   0  0  0  0  0  0  0  0  0  0  0  0
   -2.6798   -2.5586    0.8428 C   0  0  0  0  0  0  0  0  0  0  0  0
   -3.1776   -1.9784    1.6236 H   0  0  0  0  0  0  0  0  0  0  0  0
   -3.2336   -2.4495   -0.0926 H   0  0  0  0  0  0  0  0  0  0  0  0
   -1.2562   -2.0663    0.6628 C   0  0  0  0  0  0  0  0  0  0  0  0
   -0.3196   -2.8300    0.8392 O   0  0  0  0  0  0  0  0  0  0  0  0
   -1.0281   -0.7573    0.2974 N   0  0  0  0  0  0  0  0  0  0  0  0
   -1.8341   -0.1363    0.3274 H   0  0  0  0  0  0  0  0  0  0  0  0
    0.2856   -0.0970    0.3883 C   0  0  1  0  0  0  0  0  0  0  0  0
    1.0696   -0.8449    0.5389 H   0  0  0  0  0  0  0  0  0  0  0  0
    0.5726    0.6130   -0.9393 C   0  0  0  0  0  0  0  0  0  0  0  0
    1.5950    1.0042   -0.9325 H   0  0  0  0  0  0  0  0  0  0  0  0
    0.4976   -0.1081   -1.7601 H   0  0  0  0  0  0  0  0  0  0  0  0
   -0.3454    1.6903   -1.1598 O   0  0  0  0  0  0  0  0  0  0  0  0
   -0.1850    2.1162   -2.0198 H   0  0  0  0  0  0  0  0  0  0  0  0
    0.3716    0.8878    1.5729 C   0  0  0  0  0  0  0  0  0  0  0  0
   -0.6329    1.2043    2.2031 O   0  0  0  0  0  0  0  0  0  0  0  0
    1.6018    1.3589    1.9989 N   0  0  0  0  0  0  0  0  0  0  0  0
    2.4277    1.0334    1.5067 H   0  0  0  0  0  0  0  0  0  0  0  0
    1.7674    2.2205    3.1631 C   0  0  0  0  0  0  0  0  0  0  0  0
    1.4106    1.7157    4.0671 H   0  0  0  0  0  0  0  0  0  0  0  0
    2.8235    2.4713    3.3013 H   0  0  0  0  0  0  0  0  0  0  0  0
    1.2054    3.1515    3.0341 H   0  0  0  0  0  0  0  0  0  0  0  0
  1  2  1  0  0  0  0
  2  3  1  0  0  0  0
  2  4  1  0  0  0  0
  2  5  1  0  0  0  0
  5  6  2  0  0  0  0
  5  7  1  0  0  0  0
  7  8  1  0  0  0  0
  7  9  1  0  0  0  0
  9 10  1  0  0  0  0
  9 11  1  0  0  0  0
  9 16  1  0  0  0  0
 11 12  1  0  0  0  0
 11 13  1  0  0  0  0
 11 14  1  0  0  0  0
 14 15  1  0  0  0  0
 16 17  2  0  0  0  0
 16 18  1  0  0  0  0
 18 19  1  0  0  0  0
 18 20  1  0  0  0  0
 20 21  1  0  0  0  0
 20 22  1  0  0  0  0
 20 23  1  0  0  0  0
M  END
$$$$

  -OEChem-01062216093D

 23 22  0     1  0  0  0  0  0999 V2000
   -2.6408   -3.6130    1.1547 H   0  0  0  0  0  0  0  0  0  0  0  0
   -2.6555   -2.5534    0.8851 C   0  0  0  0  0  0  0  0  0  0  0  0
   -3.0979   -1.9871    1.7085 H   0  0  0  0  0  0  0  0  0  0  0  0
   -3.2692   -2.4254   -0.0096 H   0  0  0  0  0  0  0  0  0  0  0  0
   -1.2446   -2.0618    0.6223 C   0  0  0  0  0  0  0  0  0  0  0  0
   -0.3023   -2.8337    0.7145 O   0  0  0  0  0  0  0  0  0  0  0  0
   -1.0340   -0.7473    0.2629 N   0  0  0  0  0  0  0  0  0  0  0  0
   -1.8346   -0.1300    0.3750 H   0  0  0  0  0  0  0  0  0  0  0  0
    0.2843   -0.1002    0.3776 C   0  0  1  0  0  0  0  0  0  0  0  0
    1.0764   -0.8454    0.2578 H   0  0  0  0  0  0  0  0  0  0  0  0
    0.4195    0.9064   -0.7711 C   0  0  0  0  0  0  0  0  0  0  0  0
    1.4353    1.3136   -0.7887 H   0  0  0  0  0  0  0  0  0  0  0  0
    0.2513    0.3941   -1.7242 H   0  0  0  0  0  0  0  0  0  0  0  0
   -0.5212    1.9776   -0.6285 O   0  0  0  0  0  0  0  0  0  0  0  0
   -0.4611    2.5974   -1.3766 H   0  0  0  0  0  0  0  0  0  0  0  0
    0.5046    0.5783    1.7484 C   0  0  0  0  0  0  0  0  0  0  0  0
   -0.3602    0.5387    2.6184 O   0  0  0  0  0  0  0  0  0  0  0  0
    1.6929    1.2334    2.0250 N   0  0  0  0  0  0  0  0  0  0  0  0
    2.4025    1.2497    1.2999 H   0  0  0  0  0  0  0  0  0  0  0  0
    1.9749    1.8733    3.3040 C   0  0  0  0  0  0  0  0  0  0  0  0
    1.9250    1.1420    4.1177 H   0  0  0  0  0  0  0  0  0  0  0  0
    2.9775    2.3114    3.2948 H   0  0  0  0  0  0  0  0  0  0  0  0
    1.2504    2.6703    3.5009 H   0  0  0  0  0  0  0  0  0  0  0  0
  1  2  1  0  0  0  0
  2  3  1  0  0  0  0
  2  4  1  0  0  0  0
  2  5  1  0  0  0  0
  5  6  2  0  0  0  0
  5  7  1  0  0  0  0
  7  8  1  0  0  0  0
  7  9  1  0  0  0  0
  9 10  1  0  0  0  0
  9 11  1  0  0  0  0
  9 16  1  0  0  0  0
 11 12  1  0  0  0  0
 11 13  1  0  0  0  0
 11 14  1  0  0  0  0
 14 15  1  0  0  0  0
 16 17  2  0  0  0  0
 16 18  1  0  0  0  0
 18 19  1  0  0  0  0
 18 20  1  0  0  0  0
 20 21  1  0  0  0  0
 20 22  1  0  0  0  0
 20 23  1  0  0  0  0
M  END
$$$$

  -OEChem-01062216093D

 23 22  0     1  0  0  0  0  0999 V2000
   -2.6399   -3.5986    1.1826 H   0  0  0  0  0  0  0  0  0  0  0  0
   -2.6524   -2.5411    0.9043 C   0  0  0  0  0  0  0  0  0  0  0  0
   -3.0710   -1.9650    1.7333 H   0  0  0  0  0  0  0  0  0  0  0  0
   -3.2858   -2.4148    0.0233 H   0  0  0  0  0  0  0  0  0  0  0  0
   -1.2445   -2.0628    0.6051 C   0  0  0  0  0  0  0  0  0  0  0  0
   -0.3104   -2.8484    0.6529 O   0  0  0  0  0  0  0  0  0  0  0  0
   -1.0303   -0.7456    0.2560 N   0  0  0  0  0  0  0  0  0  0  0  0
   -1.8264   -0.1268    0.3857 H   0  0  0  0  0  0  0  0  0  0  0  0
    0.2939   -0.1091    0.3696 C   0  0  1  0  0  0  0  0  0  0  0  0
    1.0824   -0.8574    0.2432 H   0  0  0  0  0  0  0  0  0  0  0  0
    0.4286    0.8986   -0.7789 C   0  0  0  0  0  0  0  0  0  0  0  0
    1.4471    1.2983   -0.8081 H   0  0  0  0  0  0  0  0  0  0  0  0
    0.2480    0.3876   -1.7307 H   0  0  0  0  0  0  0  0  0  0  0  0
   -0.5059    1.9746   -0.6280 O   0  0  0  0  0  0  0  0  0  0  0  0
   -0.4698    2.5781   -1.3912 H   0  0  0  0  0  0  0  0  0  0  0  0
    0.5205    0.5536    1.7495 C   0  0  0  0  0  0  0  0  0  0  0  0
   -0.2274    0.3097    2.6910 O   0  0  0  0  0  0  0  0  0  0  0  0
    1.5546    1.4530    1.9503 N   0  0  0  0  0  0  0  0  0  0  0  0
    2.1091    1.7161    1.1425 H   0  0  0  0  0  0  0  0  0  0  0  0
    1.7699    2.1536    3.2105 C   0  0  0  0  0  0  0  0  0  0  0  0
    1.9214    1.4382    4.0258 H   0  0  0  0  0  0  0  0  0  0  0  0
    2.6567    2.7907    3.1430 H   0  0  0  0  0  0  0  0  0  0  0  0
    0.9070    2.7837    3.4502 H   0  0  0  0  0  0  0  0  0  0  0  0
  1  2  1  0  0  0  0
  2  3  1  0  0  0  0
  2  4  1  0  0  0  0
  2  5  1  0  0  0  0
  5  6  2  0  0  0  0
  5  7  1  0  0  0  0
  7  8  1  0  0  0  0
  7  9  1  0  0  0  0
  9 10  1  0  0  0  0
  9 11  1  0  0  0  0
  9 16  1  0  0  0  0
 11 12  1  0  0  0  0
 11 13  1  0  0  0  0
 11 14  1  0  0  0  0
 14 15  1  0  0  0  0
 16 17  2  0  0  0  0
 16 18  1  0  0  0  0
 18 19  1  0  0  0  0
 18 20  1  0  0  0  0
 20 21  1  0  0  0  0
 20 22  1  0  0  0  0
 20 23  1  0  0  0  0
M  END
$$$$

  -OEChem-01062216093D

 23 22  0     1  0  0  0  0  0999 V2000
   -2.6434   -3.5964    1.1736 H   0  0  0  0  0  0  0  0  0  0  0  0
   -2.6536   -2.5344    0.9129 C   0  0  0  0  0  0  0  0  0  0  0  0
   -3.0669   -1.9712    1.7532 H   0  0  0  0  0  0  0  0  0  0  0  0
   -3.2901   -2.3916    0.0367 H   0  0  0  0  0  0  0  0  0  0  0  0
   -1.2450   -2.0565    0.6151 C   0  0  0  0  0  0  0  0  0  0  0  0
   -0.3164   -2.8492    0.6377 O   0  0  0  0  0  0  0  0  0  0  0  0
   -1.0285   -0.7380    0.2703 N   0  0  0  0  0  0  0  0  0  0  0  0
   -1.8255   -0.1192    0.3903 H   0  0  0  0  0  0  0  0  0  0  0  0
    0.2991   -0.1046    0.3707 C   0  0  1  0  0  0  0  0  0  0  0  0
    1.0823   -0.8584    0.2445 H   0  0  0  0  0  0  0  0  0  0  0  0
    0.4402    0.8894   -0.7897 C   0  0  0  0  0  0  0  0  0  0  0  0
    1.4631    1.2776   -0.8275 H   0  0  0  0  0  0  0  0  0  0  0  0
    0.2528    0.3672   -1.7340 H   0  0  0  0  0  0  0  0  0  0  0  0
   -0.4857    1.9751   -0.6537 O   0  0  0  0  0  0  0  0  0  0  0  0
   -0.4771    2.5406   -1.4467 H   0  0  0  0  0  0  0  0  0  0  0  0
    0.5403    0.5509    1.7529 C   0  0  0  0  0  0  0  0  0  0  0  0
   -0.0228    0.1169    2.7518 O   0  0  0  0  0  0  0  0  0  0  0  0
    1.3582    1.6599    1.8955 N   0  0  0  0  0  0  0  0  0  0  0  0
    1.6482    2.1201    1.0386 H   0  0  0  0  0  0  0  0  0  0  0  0
    1.5083    2.3787    3.1553 C   0  0  0  0  0  0  0  0  0  0  0  0
    1.8742    1.7073    3.9393 H   0  0  0  0  0  0  0  0  0  0  0  0
    2.2266    3.1962    3.0412 H   0  0  0  0  0  0  0  0  0  0  0  0
    0.5488    2.8006    3.4723 H   0  0  0  0  0  0  0  0  0  0  0  0
  1  2  1  0  0  0  0
  2  3  1  0  0  0  0
  2  4  1  0  0  0  0
  2  5  1  0  0  0  0
  5  6  2  0  0  0  0
  5  7  1  0  0  0  0
  7  8  1  0  0  0  0
  7  9  1  0  0  0  0
  9 10  1  0  0  0  0
  9 11  1  0  0  0  0
  9 16  1  0  0  0  0
 11 12  1  0  0  0  0
 11 13  1  0  0  0  0
 11 14  1  0  0  0  0
 14 15  1  0  0  0  0
 16 17  2  0  0  0  0
 16 18  1  0  0  0  0
 18 19  1  0  0  0  0
 18 20  1  0  0  0  0
 20 21  1  0  0  0  0
 20 22  1  0  0  0  0
 20 23  1  0  0  0  0
M  END
$$$$

  -OEChem-01062216093D

 23 22  0     1  0  0  0  0  0999 V2000
   -2.6478   -3.5996    1.1393 H   0  0  0  0  0  0  0  0  0  0  0  0
   -2.6517   -2.5288    0.9168 C   0  0  0  0  0  0  0  0  0  0  0  0
   -3.0556   -1.9922    1.7788 H   0  0  0  0  0  0  0  0  0  0  0  0
   -3.2922   -2.3508    0.0498 H   0  0  0  0  0  0  0  0  0  0  0  0
   -1.2414   -2.0508    0.6283 C   0  0  0  0  0  0  0  0  0  0  0  0
   -0.3145   -2.8449    0.6488 O   0  0  0  0  0  0  0  0  0  0  0  0
   -1.0254   -0.7326    0.2813 N   0  0  0  0  0  0  0  0  0  0  0  0
   -1.8282   -0.1169    0.3721 H   0  0  0  0  0  0  0  0  0  0  0  0
    0.2998   -0.0938    0.3767 C   0  0  1  0  0  0  0  0  0  0  0  0
    1.0836   -0.8493    0.2618 H   0  0  0  0  0  0  0  0  0  0  0  0
    0.4518    0.8823   -0.7982 C   0  0  0  0  0  0  0  0  0  0  0  0
    1.4763    1.2677   -0.8310 H   0  0  0  0  0  0  0  0  0  0  0  0
    0.2733    0.3434   -1.7349 H   0  0  0  0  0  0  0  0  0  0  0  0
   -0.4727    1.9741   -0.6939 O   0  0  0  0  0  0  0  0  0  0  0  0
   -0.4772    2.5014   -1.5135 H   0  0  0  0  0  0  0  0  0  0  0  0
    0.5403    0.5656    1.7567 C   0  0  0  0  0  0  0  0  0  0  0  0
    0.2058   -0.0119    2.7840 O   0  0  0  0  0  0  0  0  0  0  0  0
    1.0873    1.8327    1.8676 N   0  0  0  0  0  0  0  0  0  0  0  0
    1.0984    2.3789    1.0100 H   0  0  0  0  0  0  0  0  0  0  0  0
    1.2008    2.5380    3.1387 C   0  0  0  0  0  0  0  0  0  0  0  0
    1.7812    1.9470    3.8551 H   0  0  0  0  0  0  0  0  0  0  0  0
    1.7084    3.4964    2.9946 H   0  0  0  0  0  0  0  0  0  0  0  0
    0.2087    2.7286    3.5611 H   0  0  0  0  0  0  0  0  0  0  0  0
  1  2  1  0  0  0  0
  2  3  1  0  0  0  0
  2  4  1  0  0  0  0
  2  5  1  0  0  0  0
  5  6  2  0  0  0  0
  5  7  1  0  0  0  0
  7  8  1  0  0  0  0
  7  9  1  0  0  0  0
  9 10  1  0  0  0  0
  9 11  1  0  0  0  0
  9 16  1  0  0  0  0
 11 12  1  0  0  0  0
 11 13  1  0  0  0  0
 11 14  1  0  0  0  0
 14 15  1  0  0  0  0
 16 17  2  0  0  0  0
 16 18  1  0  0  0  0
 18 19  1  0  0  0  0
 18 20  1  0  0  0  0
 20 21  1  0  0  0  0
 20 22  1  0  0  0  0
 20 23  1  0  0  0  0
M  END
$$$$

  -OEChem-01062216093D

 23 22  0     1  0  0  0  0  0999 V2000
   -2.6487   -3.6006    1.1340 H   0  0  0  0  0  0  0  0  0  0  0  0
   -2.6530   -2.5302    0.9099 C   0  0  0  0  0  0  0  0  0  0  0  0
   -3.0717   -1.9941    1.7650 H   0  0  0  0  0  0  0  0  0  0  0  0
   -3.2812   -2.3560    0.0333 H   0  0  0  0  0  0  0  0  0  0  0  0
   -1.2400   -2.0483    0.6413 C   0  0  0  0  0  0  0  0  0  0  0  0
   -0.3124   -2.8403    0.6737 O   0  0  0  0  0  0  0  0  0  0  0  0
   -1.0235   -0.7299    0.2949 N   0  0  0  0  0  0  0  0  0  0  0  0
   -1.8322   -0.1178    0.3499 H   0  0  0  0  0  0  0  0  0  0  0  0
    0.2984   -0.0843    0.3859 C   0  0  1  0  0  0  0  0  0  0  0  0
    1.0836   -0.8393    0.2744 H   0  0  0  0  0  0  0  0  0  0  0  0
    0.4497    0.8815   -0.7993 C   0  0  0  0  0  0  0  0  0  0  0  0
    1.4730    1.2705   -0.8265 H   0  0  0  0  0  0  0  0  0  0  0  0
    0.2816    0.3310   -1.7312 H   0  0  0  0  0  0  0  0  0  0  0  0
   -0.4766    1.9758   -0.7191 O   0  0  0  0  0  0  0  0  0  0  0  0
   -0.4683    2.4914   -1.5466 H   0  0  0  0  0  0  0  0  0  0  0  0
    0.5413    0.5774    1.7632 C   0  0  0  0  0  0  0  0  0  0  0  0
    0.4581   -0.0846    2.7894 O   0  0  0  0  0  0  0  0  0  0  0  0
    0.7868    1.9342    1.8773 N   0  0  0  0  0  0  0  0  0  0  0  0
    0.5910    2.4784    1.0386 H   0  0  0  0  0  0  0  0  0  0  0  0
    0.8608    2.6270    3.1579 C   0  0  0  0  0  0  0  0  0  0  0  0
    1.6334    2.1800    3.7925 H   0  0  0  0  0  0  0  0  0  0  0  0
    1.1122    3.6805    3.0028 H   0  0  0  0  0  0  0  0  0  0  0  0
   -0.1000    2.5708    3.6800 H   0  0  0  0  0  0  0  0  0  0  0  0
  1  2  1  0  0  0  0
  2  3  1  0  0  0  0
  2  4  1  0  0  0  0
  2  5  1  0  0  0  0
  5  6  2  0  0  0  0
  5  7  1  0  0  0  0
  7  8  1  0  0  0  0
  7  9  1  0  0  0  0
  9 10  1  0  0  0  0
  9 11  1  0  0  0  0
  9 16  1  0  0  0  0
 11 12  1  0  0  0  0
 11 13  1  0  0  0  0
 11 14  1  0  0  0  0
 14 15  1  0  0  0  0
 16 17  2  0  0  0  0
 16 18  1  0  0  0  0
 18 19  1  0  0  0  0
 18 20  1  0  0  0  0
 20 21  1  0  0  0  0
 20 22  1  0  0  0  0
 20 23  1  0  0  0  0
M  END
$$$$

  -OEChem-01062216093D

 23 22  0     1  0  0  0  0  0999 V2000
   -2.6514   -3.6062    1.1624 H   0  0  0  0  0  0  0  0  0  0  0  0
   -2.6638   -2.5550    0.8607 C   0  0  0  0  0  0  0  0  0  0  0  0
   -3.1608   -1.9727    1.6402 H   0  0  0  0  0  0  0  0  0  0  0  0
   -3.2259   -2.4619   -0.0715 H   0  0  0  0  0  0  0  0  0  0  0  0
   -1.2457   -2.0531    0.6645 C   0  0  0  0  0  0  0  0  0  0  0  0
   -0.3113   -2.8316    0.7535 O   0  0  0  0  0  0  0  0  0  0  0  0
   -1.0299   -0.7347    0.3174 N   0  0  0  0  0  0  0  0  0  0  0  0
   -1.8471   -0.1315    0.3075 H   0  0  0  0  0  0  0  0  0  0  0  0
    0.2845   -0.0746    0.4111 C   0  0  1  0  0  0  0  0  0  0  0  0
    1.0754   -0.8249    0.3054 H   0  0  0  0  0  0  0  0  0  0  0  0
    0.4275    0.8804   -0.7846 C   0  0  0  0  0  0  0  0  0  0  0  0
    1.4456    1.2831   -0.8058 H   0  0  0  0  0  0  0  0  0  0  0  0
    0.2759    0.3171   -1.7116 H   0  0  0  0  0  0  0  0  0  0  0  0
   -0.5108    1.9674   -0.7290 O   0  0  0  0  0  0  0  0  0  0  0  0
   -0.4753    2.4879   -1.5530 H   0  0  0  0  0  0  0  0  0  0  0  0
    0.5262    0.5975    1.7823 C   0  0  0  0  0  0  0  0  0  0  0  0
    0.7239   -0.0842    2.7784 O   0  0  0  0  0  0  0  0  0  0  0  0
    0.4568    1.9702    1.9335 N   0  0  0  0  0  0  0  0  0  0  0  0
    0.1263    2.4864    1.1184 H   0  0  0  0  0  0  0  0  0  0  0  0
    0.5468    2.6488    3.2202 C   0  0  0  0  0  0  0  0  0  0  0  0
    1.4921    2.4054    3.7168 H   0  0  0  0  0  0  0  0  0  0  0  0
    0.5018    3.7330    3.0796 H   0  0  0  0  0  0  0  0  0  0  0  0
   -0.2808    2.3477    3.8708 H   0  0  0  0  0  0  0  0  0  0  0  0
  1  2  1  0  0  0  0
  2  3  1  0  0  0  0
  2  4  1  0  0  0  0
  2  5  1  0  0  0  0
  5  6  2  0  0  0  0
  5  7  1  0  0  0  0
  7  8  1  0  0  0  0
  7  9  1  0  0  0  0
  9 10  1  0  0  0  0
  9 11  1  0  0  0  0
  9 16  1  0  0  0  0
 11 12  1  0  0  0  0
 11 13  1  0  0  0  0
 11 14  1  0  0  0  0
 14 15  1  0  0  0  0
 16 17  2  0  0  0  0
 16 18  1  0  0  0  0
 18 19  1  0  0  0  0
 18 20  1  0  0  0  0
 20 21  1  0  0  0  0
 20 22  1  0  0  0  0
 20 23  1  0  0  0  0
M  END
$$$$

  -OEChem-01062216093D

 23 22  0     1  0  0  0  0  0999 V2000
   -2.6644   -3.6441    1.1000 H   0  0  0  0  0  0  0  0  0  0  0  0
   -2.6759   -2.5905    0.8065 C   0  0  0  0  0  0  0  0  0  0  0  0
   -3.2107   -2.0197    1.5695 H   0  0  0  0  0  0  0  0  0  0  0  0
   -3.2008   -2.4959   -0.1469 H   0  0  0  0  0  0  0  0  0  0  0  0
   -1.2564   -2.0720    0.6724 C   0  0  0  0  0  0  0  0  0  0  0  0
   -0.3177   -2.8344    0.8247 O   0  0  0  0  0  0  0  0  0  0  0  0
   -1.0409   -0.7527    0.3289 N   0  0  0  0  0  0  0  0  0  0  0  0
   -1.8633   -0.1609    0.2569 H   0  0  0  0  0  0  0  0  0  0  0  0
    0.2643   -0.0771    0.4408 C   0  0  1  0  0  0  0  0  0  0  0  0
    1.0635   -0.8200    0.3437 H   0  0  0  0  0  0  0  0  0  0  0  0
    0.4144    0.8808   -0.7511 C   0  0  0  0  0  0  0  0  0  0  0  0
    1.4282    1.2949   -0.7519 H   0  0  0  0  0  0  0  0  0  0  0  0
    0.2866    0.3177   -1.6817 H   0  0  0  0  0  0  0  0  0  0  0  0
   -0.5355    1.9592   -0.7121 O   0  0  0  0  0  0  0  0  0  0  0  0
   -0.4569    2.5072   -1.5152 H   0  0  0  0  0  0  0  0  0  0  0  0
    0.4825    0.6005    1.8118 C   0  0  0  0  0  0  0  0  0  0  0  0
    0.9725   -0.0234    2.7422 O   0  0  0  0  0  0  0  0  0  0  0  0
    0.1022    1.9111    2.0299 N   0  0  0  0  0  0  0  0  0  0  0  0
   -0.3123    2.3952    1.2334 H   0  0  0  0  0  0  0  0  0  0  0  0
    0.2508    2.6052    3.3022 C   0  0  0  0  0  0  0  0  0  0  0  0
    1.3038    2.6356    3.6012 H   0  0  0  0  0  0  0  0  0  0  0  0
   -0.1141    3.6332    3.2167 H   0  0  0  0  0  0  0  0  0  0  0  0
   -0.3231    2.0975    4.0845 H   0  0  0  0  0  0  0  0  0  0  0  0
  1  2  1  0  0  0  0
  2  3  1  0  0  0  0
  2  4  1  0  0  0  0
  2  5  1  0  0  0  0
  5  6  2  0  0  0  0
  5  7  1  0  0  0  0
  7  8  1  0  0  0  0
  7  9  1  0  0  0  0
  9 10  1  0  0  0  0
  9 11  1  0  0  0  0
  9 16  1  0  0  0  0
 11 12  1  0  0  0  0
 11 13  1  0  0  0  0
 11 14  1  0  0  0  0
 14 15  1  0  0  0  0
 16 17  2  0  0  0  0
 16 18  1  0  0  0  0
 18 19  1  0  0  0  0
 18 20  1  0  0  0  0
 20 21  1  0  0  0  0
 20 22  1  0  0  0  0
 20 23  1  0  0  0  0
M  END
$$$$

  -OEChem-01062216093D

 23 22  0     1  0  0  0  0  0999 V2000
   -2.6839   -3.7003    0.9931 H   0  0  0  0  0  0  0  0  0  0  0  0
   -2.6926   -2.6410    0.7214 C   0  0  0  0  0  0  0  0  0  0  0  0
   -3.2813   -2.0939    1.4616 H   0  0  0  0  0  0  0  0  0  0  0  0
   -3.1592   -2.5334   -0.2605 H   0  0  0  0  0  0  0  0  0  0  0  0
   -1.2753   -2.1009    0.6852 C   0  0  0  0  0  0  0  0  0  0  0  0
   -0.3389   -2.8438    0.9212 O   0  0  0  0  0  0  0  0  0  0  0  0
   -1.0556   -0.7804    0.3509 N   0  0  0  0  0  0  0  0  0  0  0  0
   -1.8761   -0.1992    0.2061 H   0  0  0  0  0  0  0  0  0  0  0  0
    0.2433   -0.0962    0.4832 C   0  0  1  0  0  0  0  0  0  0  0  0
    1.0481   -0.8330    0.3842 H   0  0  0  0  0  0  0  0  0  0  0  0
    0.3940    0.8811   -0.6908 C   0  0  0  0  0  0  0  0  0  0  0  0
    1.4033    1.3057   -0.6744 H   0  0  0  0  0  0  0  0  0  0  0  0
    0.2795    0.3345   -1.6329 H   0  0  0  0  0  0  0  0  0  0  0  0
   -0.5677    1.9482   -0.6359 O   0  0  0  0  0  0  0  0  0  0  0  0
   -0.4578    2.5398   -1.4034 H   0  0  0  0  0  0  0  0  0  0  0  0
    0.4442    0.5804    1.8556 C   0  0  0  0  0  0  0  0  0  0  0  0
    1.2070    0.0992    2.6816 O   0  0  0  0  0  0  0  0  0  0  0  0
   -0.2111    1.7580    2.1632 N   0  0  0  0  0  0  0  0  0  0  0  0
   -0.7026    2.2011    1.3873 H   0  0  0  0  0  0  0  0  0  0  0  0
    0.0138    2.5105    3.3905 C   0  0  0  0  0  0  0  0  0  0  0  0
    1.0502    2.8601    3.4414 H   0  0  0  0  0  0  0  0  0  0  0  0
   -0.6492    3.3802    3.4272 H   0  0  0  0  0  0  0  0  0  0  0  0
   -0.1907    1.8850    4.2659 H   0  0  0  0  0  0  0  0  0  0  0  0
  1  2  1  0  0  0  0
  2  3  1  0  0  0  0
  2  4  1  0  0  0  0
  2  5  1  0  0  0  0
  5  6  2  0  0  0  0
  5  7  1  0  0  0  0
  7  8  1  0  0  0  0
  7  9  1  0  0  0  0
  9 10  1  0  0  0  0
  9 11  1  0  0  0  0
  9 16  1  0  0  0  0
 11 12  1  0  0  0  0
 11 13  1  0  0  0  0
 11 14  1  0  0  0  0
 14 15  1  0  0  0  0
 16 17  2  0  0  0  0
 16 18  1  0  0  0  0
 18 19  1  0  0  0  0
 18 20  1  0  0  0  0
 20 21  1  0  0  0  0
 20 22  1  0  0  0  0
 20 23  1  0  0  0  0
M  END
$$$$

  -OEChem-01062216093D

 23 22  0     1  0  0  0  0  0999 V2000
   -2.6968   -3.7405    0.9188 H   0  0  0  0  0  0  0  0  0  0  0  0
   -2.7006   -2.6796    0.6530 C   0  0  0  0  0  0  0  0  0  0  0  0
   -3.3372   -2.1425    1.3599 H   0  0  0  0  0  0  0  0  0  0  0  0
   -3.1106   -2.5708   -0.3538 H   0  0  0  0  0  0  0  0  0  0  0  0
   -1.2894   -2.1247    0.7020 C   0  0  0  0  0  0  0  0  0  0  0  0
   -0.3622   -2.8515    1.0122 O   0  0  0  0  0  0  0  0  0  0  0  0
   -1.0623   -0.8046    0.3731 N   0  0  0  0  0  0  0  0  0  0  0  0
   -1.8726   -0.2332    0.1525 H   0  0  0  0  0  0  0  0  0  0  0  0
    0.2371   -0.1215    0.5094 C   0  0  1  0  0  0  0  0  0  0  0  0
    1.0425   -0.8555    0.3948 H   0  0  0  0  0  0  0  0  0  0  0  0
    0.3680    0.8792   -0.6443 C   0  0  0  0  0  0  0  0  0  0  0  0
    1.3737    1.3125   -0.6299 H   0  0  0  0  0  0  0  0  0  0  0  0
    0.2452    0.3563   -1.5985 H   0  0  0  0  0  0  0  0  0  0  0  0
   -0.6039    1.9331   -0.5408 O   0  0  0  0  0  0  0  0  0  0  0  0
   -0.4821    2.5761   -1.2637 H   0  0  0  0  0  0  0  0  0  0  0  0
    0.4498    0.5552    1.8780 C   0  0  0  0  0  0  0  0  0  0  0  0
    1.4211    0.2724    2.5664 O   0  0  0  0  0  0  0  0  0  0  0  0
   -0.4138    1.5460    2.3083 N   0  0  0  0  0  0  0  0  0  0  0  0
   -1.0351    1.9140    1.5903 H   0  0  0  0  0  0  0  0  0  0  0  0
   -0.1799    2.3385    3.5084 C   0  0  0  0  0  0  0  0  0  0  0  0
    0.7475    2.9129    3.4142 H   0  0  0  0  0  0  0  0  0  0  0  0
   -1.0074    3.0366    3.6669 H   0  0  0  0  0  0  0  0  0  0  0  0
   -0.1047    1.6893    4.3872 H   0  0  0  0  0  0  0  0  0  0  0  0
  1  2  1  0  0  0  0
  2  3  1  0  0  0  0
  2  4  1  0  0  0  0
  2  5  1  0  0  0  0
  5  6  2  0  0  0  0
  5  7  1  0  0  0  0
  7  8  1  0  0  0  0
  7  9  1  0  0  0  0
  9 10  1  0  0  0  0
  9 11  1  0  0  0  0
  9 16  1  0  0  0  0
 11 12  1  0  0  0  0
 11 13  1  0  0  0  0
 11 14  1  0  0  0  0
 14 15  1  0  0  0  0
 16 17  2  0  0  0  0
 16 18  1  0  0  0  0
 18 19  1  0  0  0  0
 18 20  1  0  0  0  0
 20 21  1  0  0  0  0
 20 22  1  0  0  0  0
 20 23  1  0  0  0  0
M  END
$$$$

  -OEChem-01062216093D

 23 22  0     1  0  0  0  0  0999 V2000
   -2.6972   -3.7774    0.8498 H   0  0  0  0  0  0  0  0  0  0  0  0
   -2.7035   -2.7161    0.5856 C   0  0  0  0  0  0  0  0  0  0  0  0
   -3.3968   -2.1929    1.2484 H   0  0  0  0  0  0  0  0  0  0  0  0
   -3.0470   -2.6132   -0.4463 H   0  0  0  0  0  0  0  0  0  0  0  0
   -1.3095   -2.1349    0.7296 C   0  0  0  0  0  0  0  0  0  0  0  0
   -0.3973   -2.8366    1.1291 O   0  0  0  0  0  0  0  0  0  0  0  0
   -1.0776   -0.8167    0.3973 N   0  0  0  0  0  0  0  0  0  0  0  0
   -1.8656   -0.2676    0.0663 H   0  0  0  0  0  0  0  0  0  0  0  0
    0.2269   -0.1403    0.5231 C   0  0  1  0  0  0  0  0  0  0  0  0
    1.0273   -0.8770    0.3925 H   0  0  0  0  0  0  0  0  0  0  0  0
    0.3427    0.8716   -0.6194 C   0  0  0  0  0  0  0  0  0  0  0  0
    1.3484    1.3057   -0.6136 H   0  0  0  0  0  0  0  0  0  0  0  0
    0.2045    0.3644   -1.5800 H   0  0  0  0  0  0  0  0  0  0  0  0
   -0.6287    1.9197   -0.4759 O   0  0  0  0  0  0  0  0  0  0  0  0
   -0.4852    2.6085   -1.1506 H   0  0  0  0  0  0  0  0  0  0  0  0
    0.4692    0.5410    1.8831 C   0  0  0  0  0  0  0  0  0  0  0  0
    1.5740    0.4869    2.4076 O   0  0  0  0  0  0  0  0  0  0  0  0
   -0.5198    1.3086    2.4717 N   0  0  0  0  0  0  0  0  0  0  0  0
   -1.3164    1.5236    1.8789 H   0  0  0  0  0  0  0  0  0  0  0  0
   -0.2941    2.1134    3.6653 C   0  0  0  0  0  0  0  0  0  0  0  0
    0.4804    2.8650    3.4804 H   0  0  0  0  0  0  0  0  0  0  0  0
   -1.2156    2.6276    3.9543 H   0  0  0  0  0  0  0  0  0  0  0  0
    0.0223    1.4790    4.5000 H   0  0  0  0  0  0  0  0  0  0  0  0
  1  2  1  0  0  0  0
  2  3  1  0  0  0  0
  2  4  1  0  0  0  0
  2  5  1  0  0  0  0
  5  6  2  0  0  0  0
  5  7  1  0  0  0  0
  7  8  1  0  0  0  0
  7  9  1  0  0  0  0
  9 10  1  0  0  0  0
  9 11  1  0  0  0  0
  9 16  1  0  0  0  0
 11 12  1  0  0  0  0
 11 13  1  0  0  0  0
 11 14  1  0  0  0  0
 14 15  1  0  0  0  0
 16 17  2  0  0  0  0
 16 18  1  0  0  0  0
 18 19  1  0  0  0  0
 18 20  1  0  0  0  0
 20 21  1  0  0  0  0
 20 22  1  0  0  0  0
 20 23  1  0  0  0  0
M  END
$$$$

  -OEChem-01062216093D

 23 22  0     1  0  0  0  0  0999 V2000
   -2.7133   -3.7750    0.8427 H   0  0  0  0  0  0  0  0  0  0  0  0
   -2.7072   -2.7240    0.5402 C   0  0  0  0  0  0  0  0  0  0  0  0
   -3.4405   -2.1810    1.1413 H   0  0  0  0  0  0  0  0  0  0  0  0
   -2.9886   -2.6603   -0.5136 H   0  0  0  0  0  0  0  0  0  0  0  0
   -1.3263   -2.1302    0.7452 C   0  0  0  0  0  0  0  0  0  0  0  0
   -0.4304   -2.8148    1.2067 O   0  0  0  0  0  0  0  0  0  0  0  0
   -1.0886   -0.8141    0.4099 N   0  0  0  0  0  0  0  0  0  0  0  0
   -1.8517   -0.2841   -0.0025 H   0  0  0  0  0  0  0  0  0  0  0  0
    0.2223   -0.1473    0.5223 C   0  0  1  0  0  0  0  0  0  0  0  0
    1.0150   -0.8904    0.3830 H   0  0  0  0  0  0  0  0  0  0  0  0
    0.3312    0.8649   -0.6203 C   0  0  0  0  0  0  0  0  0  0  0  0
    1.3385    1.2951   -0.6246 H   0  0  0  0  0  0  0  0  0  0  0  0
    0.1793    0.3623   -1.5812 H   0  0  0  0  0  0  0  0  0  0  0  0
   -0.6338    1.9144   -0.4570 O   0  0  0  0  0  0  0  0  0  0  0  0
   -0.4663    2.6327   -1.0936 H   0  0  0  0  0  0  0  0  0  0  0  0
    0.4940    0.5356    1.8756 C   0  0  0  0  0  0  0  0  0  0  0  0
    1.6477    0.7196    2.2430 O   0  0  0  0  0  0  0  0  0  0  0  0
   -0.5440    1.0525    2.6303 N   0  0  0  0  0  0  0  0  0  0  0  0
   -1.4692    1.0064    2.2169 H   0  0  0  0  0  0  0  0  0  0  0  0
   -0.3430    1.8319    3.8445 C   0  0  0  0  0  0  0  0  0  0  0  0
    0.2115    2.7497    3.6225 H   0  0  0  0  0  0  0  0  0  0  0  0
   -1.3076    2.1059    4.2822 H   0  0  0  0  0  0  0  0  0  0  0  0
    0.2179    1.2505    4.5840 H   0  0  0  0  0  0  0  0  0  0  0  0
  1  2  1  0  0  0  0
  2  3  1  0  0  0  0
  2  4  1  0  0  0  0
  2  5  1  0  0  0  0
  5  6  2  0  0  0  0
  5  7  1  0  0  0  0
  7  8  1  0  0  0  0
  7  9  1  0  0  0  0
  9 10  1  0  0  0  0
  9 11  1  0  0  0  0
  9 16  1  0  0  0  0
 11 12  1  0  0  0  0
 11 13  1  0  0  0  0
 11 14  1  0  0  0  0
 14 15  1  0  0  0  0
 16 17  2  0  0  0  0
 16 18  1  0  0  0  0
 18 19  1  0  0  0  0
 18 20  1  0  0  0  0
 20 21  1  0  0  0  0
 20 22  1  0  0  0  0
 20 23  1  0  0  0  0
M  END
$$$$

  -OEChem-01062216093D

 23 22  0     1  0  0  0  0  0999 V2000
   -2.6989   -3.7690    0.8326 H   0  0  0  0  0  0  0  0  0  0  0  0
   -2.7008   -2.7165    0.5351 C   0  0  0  0  0  0  0  0  0  0  0  0
   -3.4477   -2.1844    1.1290 H   0  0  0  0  0  0  0  0  0  0  0  0
   -2.9697   -2.6514   -0.5219 H   0  0  0  0  0  0  0  0  0  0  0  0
   -1.3295   -2.1087    0.7606 C   0  0  0  0  0  0  0  0  0  0  0  0
   -0.4433   -2.7723    1.2690 O   0  0  0  0  0  0  0  0  0  0  0  0
   -1.0906   -0.7977    0.4078 N   0  0  0  0  0  0  0  0  0  0  0  0
   -1.8454   -0.2768   -0.0321 H   0  0  0  0  0  0  0  0  0  0  0  0
    0.2216   -0.1307    0.5096 C   0  0  1  0  0  0  0  0  0  0  0  0
    1.0133   -0.8762    0.3795 H   0  0  0  0  0  0  0  0  0  0  0  0
    0.3255    0.8626   -0.6502 C   0  0  0  0  0  0  0  0  0  0  0  0
    1.3320    1.2946   -0.6663 H   0  0  0  0  0  0  0  0  0  0  0  0
    0.1699    0.3452   -1.6026 H   0  0  0  0  0  0  0  0  0  0  0  0
   -0.6406    1.9118   -0.4987 O   0  0  0  0  0  0  0  0  0  0  0  0
   -0.4574    2.6365   -1.1233 H   0  0  0  0  0  0  0  0  0  0  0  0
    0.5018    0.5718    1.8517 C   0  0  0  0  0  0  0  0  0  0  0  0
    1.6323    0.9692    2.1066 O   0  0  0  0  0  0  0  0  0  0  0  0
   -0.5208    0.8284    2.7471 N   0  0  0  0  0  0  0  0  0  0  0  0
   -1.4385    0.4705    2.5054 H   0  0  0  0  0  0  0  0  0  0  0  0
   -0.3230    1.4910    4.0293 C   0  0  0  0  0  0  0  0  0  0  0  0
    0.1246    2.4798    3.8843 H   0  0  0  0  0  0  0  0  0  0  0  0
   -1.2814    1.6184    4.5416 H   0  0  0  0  0  0  0  0  0  0  0  0
    0.3363    0.8954    4.6692 H   0  0  0  0  0  0  0  0  0  0  0  0
  1  2  1  0  0  0  0
  2  3  1  0  0  0  0
  2  4  1  0  0  0  0
  2  5  1  0  0  0  0
  5  6  2  0  0  0  0
  5  7  1  0  0  0  0
  7  8  1  0  0  0  0
  7  9  1  0  0  0  0
  9 10  1  0  0  0  0
  9 11  1  0  0  0  0
  9 16  1  0  0  0  0
 11 12  1  0  0  0  0
 11 13  1  0  0  0  0
 11 14  1  0  0  0  0
 14 15  1  0  0  0  0
 16 17  2  0  0  0  0
 16 18  1  0  0  0  0
 18 19  1  0  0  0  0
 18 20  1  0  0  0  0
 20 21  1  0  0  0  0
 20 22  1  0  0  0  0
 20 23  1  0  0  0  0
M  END
$$$$

  -OEChem-01062216093D

 23 22  0     1  0  0  0  0  0999 V2000
   -2.7051   -3.7526    0.8408 H   0  0  0  0  0  0  0  0  0  0  0  0
   -2.7029   -2.7034    0.5317 C   0  0  0  0  0  0  0  0  0  0  0  0
   -3.4529   -2.1630    1.1141 H   0  0  0  0  0  0  0  0  0  0  0  0
   -2.9643   -2.6493   -0.5279 H   0  0  0  0  0  0  0  0  0  0  0  0
   -1.3317   -2.0958    0.7598 C   0  0  0  0  0  0  0  0  0  0  0  0
   -0.4534   -2.7486    1.2953 O   0  0  0  0  0  0  0  0  0  0  0  0
   -1.0884   -0.7873    0.4028 N   0  0  0  0  0  0  0  0  0  0  0  0
   -1.8449   -0.2608   -0.0283 H   0  0  0  0  0  0  0  0  0  0  0  0
    0.2234   -0.1187    0.5043 C   0  0  1  0  0  0  0  0  0  0  0  0
    1.0159   -0.8639    0.3808 H   0  0  0  0  0  0  0  0  0  0  0  0
    0.3235    0.8645   -0.6660 C   0  0  0  0  0  0  0  0  0  0  0  0
    1.3283    1.2999   -0.6885 H   0  0  0  0  0  0  0  0  0  0  0  0
    0.1690    0.3382   -1.6136 H   0  0  0  0  0  0  0  0  0  0  0  0
   -0.6467    1.9112   -0.5232 O   0  0  0  0  0  0  0  0  0  0  0  0
   -0.4520    2.6429   -1.1357 H   0  0  0  0  0  0  0  0  0  0  0  0
    0.4992    0.5903    1.8452 C   0  0  0  0  0  0  0  0  0  0  0  0
    1.5545    1.1888    2.0184 O   0  0  0  0  0  0  0  0  0  0  0  0
   -0.4423    0.5774    2.8584 N   0  0  0  0  0  0  0  0  0  0  0  0
   -1.2462   -0.0249    2.7155 H   0  0  0  0  0  0  0  0  0  0  0  0
   -0.2134    1.1591    4.1742 C   0  0  0  0  0  0  0  0  0  0  0  0
    0.0407    2.2206    4.0849 H   0  0  0  0  0  0  0  0  0  0  0  0
   -1.1152    1.0720    4.7878 H   0  0  0  0  0  0  0  0  0  0  0  0
    0.6060    0.6417    4.6840 H   0  0  0  0  0  0  0  0  0  0  0  0
  1  2  1  0  0  0  0
  2  3  1  0  0  0  0
  2  4  1  0  0  0  0
  2  5  1  0  0  0  0
  5  6  2  0  0  0  0
  5  7  1  0  0  0  0
  7  8  1  0  0  0  0
  7  9  1  0  0  0  0
  9 10  1  0  0  0  0
  9 11  1  0  0  0  0
  9 16  1  0  0  0  0
 11 12  1  0  0  0  0
 11 13  1  0  0  0  0
 11 14  1  0  0  0  0
 14 15  1  0  0  0  0
 16 17  2  0  0  0  0
 16 18  1  0  0  0  0
 18 19  1  0  0  0  0
 18 20  1  0  0  0  0
 20 21  1  0  0  0  0
 20 22  1  0  0  0  0
 20 23  1  0  0  0  0
M  END
$$$$

  -OEChem-01062216093D

 23 22  0     1  0  0  0  0  0999 V2000
   -2.7136   -3.7375    0.8453 H   0  0  0  0  0  0  0  0  0  0  0  0
   -2.7054   -2.6940    0.5179 C   0  0  0  0  0  0  0  0  0  0  0  0
   -3.4704   -2.1443    1.0717 H   0  0  0  0  0  0  0  0  0  0  0  0
   -2.9411   -2.6591   -0.5486 H   0  0  0  0  0  0  0  0  0  0  0  0
   -1.3414   -2.0795    0.7681 C   0  0  0  0  0  0  0  0  0  0  0  0
   -0.4772   -2.7145    1.3470 O   0  0  0  0  0  0  0  0  0  0  0  0
   -1.0942   -0.7732    0.4095 N   0  0  0  0  0  0  0  0  0  0  0  0
   -1.8494   -0.2448   -0.0220 H   0  0  0  0  0  0  0  0  0  0  0  0
    0.2183   -0.1062    0.5063 C   0  0  1  0  0  0  0  0  0  0  0  0
    1.0096   -0.8533    0.3864 H   0  0  0  0  0  0  0  0  0  0  0  0
    0.3136    0.8646   -0.6763 C   0  0  0  0  0  0  0  0  0  0  0  0
    1.3179    1.3008   -0.7077 H   0  0  0  0  0  0  0  0  0  0  0  0
    0.1569    0.3275   -1.6175 H   0  0  0  0  0  0  0  0  0  0  0  0
   -0.6577    1.9113   -0.5430 O   0  0  0  0  0  0  0  0  0  0  0  0
   -0.4433    2.6531   -1.1362 H   0  0  0  0  0  0  0  0  0  0  0  0
    0.4939    0.6029    1.8488 C   0  0  0  0  0  0  0  0  0  0  0  0
    1.4318    1.3843    1.9624 O   0  0  0  0  0  0  0  0  0  0  0  0
   -0.2943    0.3341    2.9530 N   0  0  0  0  0  0  0  0  0  0  0  0
   -0.9215   -0.4602    2.8621 H   0  0  0  0  0  0  0  0  0  0  0  0
   -0.0118    0.8594    4.2822 C   0  0  0  0  0  0  0  0  0  0  0  0
    0.0244    1.9537    4.2621 H   0  0  0  0  0  0  0  0  0  0  0  0
   -0.7952    0.5548    4.9827 H   0  0  0  0  0  0  0  0  0  0  0  0
    0.9487    0.4810    4.6473 H   0  0  0  0  0  0  0  0  0  0  0  0
  1  2  1  0  0  0  0
  2  3  1  0  0  0  0
  2  4  1  0  0  0  0
  2  5  1  0  0  0  0
  5  6  2  0  0  0  0
  5  7  1  0  0  0  0
  7  8  1  0  0  0  0
  7  9  1  0  0  0  0
  9 10  1  0  0  0  0
  9 11  1  0  0  0  0
  9 16  1  0  0  0  0
 11 12  1  0  0  0  0
 11 13  1  0  0  0  0
 11 14  1  0  0  0  0
 14 15  1  0  0  0  0
 16 17  2  0  0  0  0
 16 18  1  0  0  0  0
 18 19  1  0  0  0  0
 18 20  1  0  0  0  0
 20 21  1  0  0  0  0
 20 22  1  0  0  0  0
 20 23  1  0  0  0  0
M  END
$$$$

  -OEChem-01062216093D

 23 22  0     1  0  0  0  0  0999 V2000
   -2.7085   -3.7265    0.8601 H   0  0  0  0  0  0  0  0  0  0  0  0
   -2.7038   -2.6856    0.5245 C   0  0  0  0  0  0  0  0  0  0  0  0
   -3.4808   -2.1375    1.0629 H   0  0  0  0  0  0  0  0  0  0  0  0
   -2.9241   -2.6608   -0.5454 H   0  0  0  0  0  0  0  0  0  0  0  0
   -1.3489   -2.0582    0.7902 C   0  0  0  0  0  0  0  0  0  0  0  0
   -0.4955   -2.6696    1.4109 O   0  0  0  0  0  0  0  0  0  0  0  0
   -1.1028   -0.7544    0.4238 N   0  0  0  0  0  0  0  0  0  0  0  0
   -1.8535   -0.2342   -0.0254 H   0  0  0  0  0  0  0  0  0  0  0  0
    0.2116   -0.0908    0.5081 C   0  0  1  0  0  0  0  0  0  0  0  0
    1.0004   -0.8409    0.3926 H   0  0  0  0  0  0  0  0  0  0  0  0
    0.3049    0.8629   -0.6894 C   0  0  0  0  0  0  0  0  0  0  0  0
    1.3099    1.2963   -0.7290 H   0  0  0  0  0  0  0  0  0  0  0  0
    0.1452    0.3131   -1.6227 H   0  0  0  0  0  0  0  0  0  0  0  0
   -0.6631    1.9140   -0.5695 O   0  0  0  0  0  0  0  0  0  0  0  0
   -0.4089    2.6768   -1.1186 H   0  0  0  0  0  0  0  0  0  0  0  0
    0.4845    0.6177    1.8520 C   0  0  0  0  0  0  0  0  0  0  0  0
    1.2696    1.5561    1.9331 O   0  0  0  0  0  0  0  0  0  0  0  0
   -0.0922    0.1211    3.0066 N   0  0  0  0  0  0  0  0  0  0  0  0
   -0.5339   -0.7921    2.9124 H   0  0  0  0  0  0  0  0  0  0  0  0
    0.2534    0.5974    4.3391 C   0  0  0  0  0  0  0  0  0  0  0  0
    0.0767    1.6751    4.4194 H   0  0  0  0  0  0  0  0  0  0  0  0
   -0.3606    0.0919    5.0905 H   0  0  0  0  0  0  0  0  0  0  0  0
    1.3073    0.3952    4.5566 H   0  0  0  0  0  0  0  0  0  0  0  0
  1  2  1  0  0  0  0
  2  3  1  0  0  0  0
  2  4  1  0  0  0  0
  2  5  1  0  0  0  0
  5  6  2  0  0  0  0
  5  7  1  0  0  0  0
  7  8  1  0  0  0  0
  7  9  1  0  0  0  0
  9 10  1  0  0  0  0
  9 11  1  0  0  0  0
  9 16  1  0  0  0  0
 11 12  1  0  0  0  0
 11 13  1  0  0  0  0
 11 14  1  0  0  0  0
 14 15  1  0  0  0  0
 16 17  2  0  0  0  0
 16 18  1  0  0  0  0
 18 19  1  0  0  0  0
 18 20  1  0  0  0  0
 20 21  1  0  0  0  0
 20 22  1  0  0  0  0
 20 23  1  0  0  0  0
M  END
$$$$

  -OEChem-01062216093D

 23 22  0     1  0  0  0  0  0999 V2000
   -2.7043   -3.7096    0.9075 H   0  0  0  0  0  0  0  0  0  0  0  0
   -2.6978   -2.6759    0.5506 C   0  0  0  0  0  0  0  0  0  0  0  0
   -3.4740   -2.1158    1.0776 H   0  0  0  0  0  0  0  0  0  0  0  0
   -2.9181   -2.6722   -0.5196 H   0  0  0  0  0  0  0  0  0  0  0  0
   -1.3418   -2.0450    0.8026 C   0  0  0  0  0  0  0  0  0  0  0  0
   -0.4787   -2.6541    1.4145 O   0  0  0  0  0  0  0  0  0  0  0  0
   -1.1016   -0.7410    0.4327 N   0  0  0  0  0  0  0  0  0  0  0  0
   -1.8591   -0.2175   -0.0010 H   0  0  0  0  0  0  0  0  0  0  0  0
    0.2124   -0.0787    0.5084 C   0  0  1  0  0  0  0  0  0  0  0  0
    1.0020   -0.8279    0.3926 H   0  0  0  0  0  0  0  0  0  0  0  0
    0.3018    0.8645   -0.6985 C   0  0  0  0  0  0  0  0  0  0  0  0
    1.3070    1.2975   -0.7405 H   0  0  0  0  0  0  0  0  0  0  0  0
    0.1424    0.3067   -1.6271 H   0  0  0  0  0  0  0  0  0  0  0  0
   -0.6646    1.9183   -0.5896 O   0  0  0  0  0  0  0  0  0  0  0  0
   -0.3855    2.6936   -1.1079 H   0  0  0  0  0  0  0  0  0  0  0  0
    0.4799    0.6251    1.8554 C   0  0  0  0  0  0  0  0  0  0  0  0
    1.0860    1.6883    1.9312 O   0  0  0  0  0  0  0  0  0  0  0  0
    0.1660   -0.0526    3.0190 N   0  0  0  0  0  0  0  0  0  0  0  0
   -0.1417   -1.0185    2.8967 H   0  0  0  0  0  0  0  0  0  0  0  0
    0.5583    0.4018    4.3460 C   0  0  0  0  0  0  0  0  0  0  0  0
    0.1785    1.4117    4.5332 H   0  0  0  0  0  0  0  0  0  0  0  0
    0.1489   -0.2665    5.1095 H   0  0  0  0  0  0  0  0  0  0  0  0
    1.6491    0.4115    4.4402 H   0  0  0  0  0  0  0  0  0  0  0  0
  1  2  1  0  0  0  0
  2  3  1  0  0  0  0
  2  4  1  0  0  0  0
  2  5  1  0  0  0  0
  5  6  2  0  0  0  0
  5  7  1  0  0  0  0
  7  8  1  0  0  0  0
  7  9  1  0  0  0  0
  9 10  1  0  0  0  0
  9 11  1  0  0  0  0
  9 16  1  0  0  0  0
 11 12  1  0  0  0  0
 11 13  1  0  0  0  0
 11 14  1  0  0  0  0
 14 15  1  0  0  0  0
 16 17  2  0  0  0  0
 16 18  1  0  0  0  0
 18 19  1  0  0  0  0
 18 20  1  0  0  0  0
 20 21  1  0  0  0  0
 20 22  1  0  0  0  0
 20 23  1  0  0  0  0
M  END
$$$$

  -OEChem-01062216093D

 23 22  0     1  0  0  0  0  0999 V2000
   -2.7268   -3.6459    1.0208 H   0  0  0  0  0  0  0  0  0  0  0  0
   -2.7057   -2.6284    0.6203 C   0  0  0  0  0  0  0  0  0  0  0  0
   -3.4635   -2.0315    1.1337 H   0  0  0  0  0  0  0  0  0  0  0  0
   -2.9414   -2.6654   -0.4460 H   0  0  0  0  0  0  0  0  0  0  0  0
   -1.3343   -2.0144    0.8266 C   0  0  0  0  0  0  0  0  0  0  0  0
   -0.4625   -2.6265    1.4253 O   0  0  0  0  0  0  0  0  0  0  0  0
   -1.0768   -0.7266    0.4112 N   0  0  0  0  0  0  0  0  0  0  0  0
   -1.8214   -0.2193   -0.0635 H   0  0  0  0  0  0  0  0  0  0  0  0
    0.2651   -0.1212    0.4026 C   0  0  1  0  0  0  0  0  0  0  0  0
    1.0226   -0.8980    0.2561 H   0  0  0  0  0  0  0  0  0  0  0  0
    0.3379    0.8229   -0.8062 C   0  0  0  0  0  0  0  0  0  0  0  0
    1.3584    1.2045   -0.9162 H   0  0  0  0  0  0  0  0  0  0  0  0
    0.0868    0.2768   -1.7215 H   0  0  0  0  0  0  0  0  0  0  0  0
   -0.5656    1.9195   -0.6345 O   0  0  0  0  0  0  0  0  0  0  0  0
   -0.2943    2.4231    0.1640 H   0  0  0  0  0  0  0  0  0  0  0  0
    0.5860    0.5843    1.7367 C   0  0  0  0  0  0  0  0  0  0  0  0
    0.8018    1.7913    1.8004 O   0  0  0  0  0  0  0  0  0  0  0  0
    0.5831   -0.1685    2.8943 N   0  0  0  0  0  0  0  0  0  0  0  0
    0.3451   -1.1579    2.7906 H   0  0  0  0  0  0  0  0  0  0  0  0
    0.8097    0.3788    4.2248 C   0  0  0  0  0  0  0  0  0  0  0  0
    0.0402    1.1175    4.4716 H   0  0  0  0  0  0  0  0  0  0  0  0
    0.7750   -0.4204    4.9716 H   0  0  0  0  0  0  0  0  0  0  0  0
    1.7920    0.8596    4.2794 H   0  0  0  0  0  0  0  0  0  0  0  0
  1  2  1  0  0  0  0
  2  3  1  0  0  0  0
  2  4  1  0  0  0  0
  2  5  1  0  0  0  0
  5  6  2  0  0  0  0
  5  7  1  0  0  0  0
  7  8  1  0  0  0  0
  7  9  1  0  0  0  0
  9 10  1  0  0  0  0
  9 11  1  0  0  0  0
  9 16  1  0  0  0  0
 11 12  1  0  0  0  0
 11 13  1  0  0  0  0
 11 14  1  0  0  0  0
 14 15  1  0  0  0  0
 16 17  2  0  0  0  0
 16 18  1  0  0  0  0
 18 19  1  0  0  0  0
 18 20  1  0  0  0  0
 20 21  1  0  0  0  0
 20 22  1  0  0  0  0
 20 23  1  0  0  0  0
M  END
$$$$

  -OEChem-01062216093D

 23 22  0     1  0  0  0  0  0999 V2000
   -2.7064   -3.6295    1.0619 H   0  0  0  0  0  0  0  0  0  0  0  0
   -2.6936   -2.6125    0.6601 C   0  0  0  0  0  0  0  0  0  0  0  0
   -3.4350   -2.0132    1.1941 H   0  0  0  0  0  0  0  0  0  0  0  0
   -2.9594   -2.6496   -0.3991 H   0  0  0  0  0  0  0  0  0  0  0  0
   -1.3152   -2.0026    0.8275 C   0  0  0  0  0  0  0  0  0  0  0  0
   -0.4265   -2.6205    1.3954 O   0  0  0  0  0  0  0  0  0  0  0  0
   -1.0652   -0.7157    0.4047 N   0  0  0  0  0  0  0  0  0  0  0  0
   -1.8189   -0.2004   -0.0465 H   0  0  0  0  0  0  0  0  0  0  0  0
    0.2759   -0.1129    0.3926 C   0  0  1  0  0  0  0  0  0  0  0  0
    1.0343   -0.8888    0.2455 H   0  0  0  0  0  0  0  0  0  0  0  0
    0.3488    0.8253   -0.8210 C   0  0  0  0  0  0  0  0  0  0  0  0
    1.3698    1.2066   -0.9282 H   0  0  0  0  0  0  0  0  0  0  0  0
    0.1013    0.2751   -1.7347 H   0  0  0  0  0  0  0  0  0  0  0  0
   -0.5527    1.9251   -0.6584 O   0  0  0  0  0  0  0  0  0  0  0  0
   -0.3219    2.3954    0.1741 H   0  0  0  0  0  0  0  0  0  0  0  0
    0.5939    0.5958    1.7246 C   0  0  0  0  0  0  0  0  0  0  0  0
    0.6000    1.8195    1.8303 O   0  0  0  0  0  0  0  0  0  0  0  0
    0.8958   -0.1873    2.8208 N   0  0  0  0  0  0  0  0  0  0  0  0
    0.7348   -1.1910    2.7113 H   0  0  0  0  0  0  0  0  0  0  0  0
    1.1354    0.3501    4.1532 C   0  0  0  0  0  0  0  0  0  0  0  0
    0.2433    0.8642    4.5254 H   0  0  0  0  0  0  0  0  0  0  0  0
    1.3852   -0.4589    4.8464 H   0  0  0  0  0  0  0  0  0  0  0  0
    1.9703    1.0585    4.1362 H   0  0  0  0  0  0  0  0  0  0  0  0
  1  2  1  0  0  0  0
  2  3  1  0  0  0  0
  2  4  1  0  0  0  0
  2  5  1  0  0  0  0
  5  6  2  0  0  0  0
  5  7  1  0  0  0  0
  7  8  1  0  0  0  0
  7  9  1  0  0  0  0
  9 10  1  0  0  0  0
  9 11  1  0  0  0  0
  9 16  1  0  0  0  0
 11 12  1  0  0  0  0
 11 13  1  0  0  0  0
 11 14  1  0  0  0  0
 14 15  1  0  0  0  0
 16 17  2  0  0  0  0
 16 18  1  0  0  0  0
 18 19  1  0  0  0  0
 18 20  1  0  0  0  0
 20 21  1  0  0  0  0
 20 22  1  0  0  0  0
 20 23  1  0  0  0  0
M  END
$$$$

  -OEChem-01062216093D

 23 22  0     1  0  0  0  0  0999 V2000
   -2.6462   -3.6819    0.9741 H   0  0  0  0  0  0  0  0  0  0  0  0
   -2.6711   -2.6263    0.6896 C   0  0  0  0  0  0  0  0  0  0  0  0
   -3.3520   -2.0963    1.3601 H   0  0  0  0  0  0  0  0  0  0  0  0
   -3.0438   -2.5469   -0.3345 H   0  0  0  0  0  0  0  0  0  0  0  0
   -1.2808   -2.0271    0.7832 C   0  0  0  0  0  0  0  0  0  0  0  0
   -0.3498   -2.6885    1.2189 O   0  0  0  0  0  0  0  0  0  0  0  0
   -1.0659   -0.7126    0.4323 N   0  0  0  0  0  0  0  0  0  0  0  0
   -1.8647   -0.1436    0.1590 H   0  0  0  0  0  0  0  0  0  0  0  0
    0.2475   -0.0564    0.4786 C   0  0  1  0  0  0  0  0  0  0  0  0
    1.0321   -0.8044    0.3262 H   0  0  0  0  0  0  0  0  0  0  0  0
    0.3240    0.8807   -0.7371 C   0  0  0  0  0  0  0  0  0  0  0  0
    1.3325    1.3044   -0.7879 H   0  0  0  0  0  0  0  0  0  0  0  0
    0.1554    0.3131   -1.6582 H   0  0  0  0  0  0  0  0  0  0  0  0
   -0.6243    1.9516   -0.6509 O   0  0  0  0  0  0  0  0  0  0  0  0
   -0.3581    2.6994   -1.2129 H   0  0  0  0  0  0  0  0  0  0  0  0
    0.5437    0.6097    1.8395 C   0  0  0  0  0  0  0  0  0  0  0  0
    0.3678    1.7992    2.0721 O   0  0  0  0  0  0  0  0  0  0  0  0
    1.1700   -0.1652    2.7982 N   0  0  0  0  0  0  0  0  0  0  0  0
    1.1654   -1.1709    2.6287 H   0  0  0  0  0  0  0  0  0  0  0  0
    1.4856    0.3176    4.1365 C   0  0  0  0  0  0  0  0  0  0  0  0
    0.5734    0.6253    4.6584 H   0  0  0  0  0  0  0  0  0  0  0  0
    1.9686   -0.4733    4.7184 H   0  0  0  0  0  0  0  0  0  0  0  0
    2.1681    1.1723    4.0847 H   0  0  0  0  0  0  0  0  0  0  0  0
  1  2  1  0  0  0  0
  2  3  1  0  0  0  0
  2  4  1  0  0  0  0
  2  5  1  0  0  0  0
  5  6  2  0  0  0  0
  5  7  1  0  0  0  0
  7  8  1  0  0  0  0
  7  9  1  0  0  0  0
  9 10  1  0  0  0  0
  9 11  1  0  0  0  0
  9 16  1  0  0  0  0
 11 12  1  0  0  0  0
 11 13  1  0  0  0  0
 11 14  1  0  0  0  0
 14 15  1  0  0  0  0
 16 17  2  0  0  0  0
 16 18  1  0  0  0  0
 18 19  1  0  0  0  0
 18 20  1  0  0  0  0
 20 21  1  0  0  0  0
 20 22  1  0  0  0  0
 20 23  1  0  0  0  0
M  END
$$$$

  -OEChem-01062216093D

 23 22  0     1  0  0  0  0  0999 V2000
   -2.6431   -3.6469    1.0603 H   0  0  0  0  0  0  0  0  0  0  0  0
   -2.6647   -2.5932    0.7688 C   0  0  0  0  0  0  0  0  0  0  0  0
   -3.2760   -2.0412    1.4869 H   0  0  0  0  0  0  0  0  0  0  0  0
   -3.1159   -2.5109   -0.2229 H   0  0  0  0  0  0  0  0  0  0  0  0
   -1.2573   -2.0284    0.7457 C   0  0  0  0  0  0  0  0  0  0  0  0
   -0.3067   -2.7278    1.0626 O   0  0  0  0  0  0  0  0  0  0  0  0
   -1.0477   -0.7109    0.4015 N   0  0  0  0  0  0  0  0  0  0  0  0
   -1.8616   -0.1137    0.2695 H   0  0  0  0  0  0  0  0  0  0  0  0
    0.2639   -0.0511    0.4441 C   0  0  1  0  0  0  0  0  0  0  0  0
    1.0444   -0.8015    0.2859 H   0  0  0  0  0  0  0  0  0  0  0  0
    0.3608    0.9015   -0.7572 C   0  0  0  0  0  0  0  0  0  0  0  0
    1.3747    1.3129   -0.7974 H   0  0  0  0  0  0  0  0  0  0  0  0
    0.1915    0.3434   -1.6840 H   0  0  0  0  0  0  0  0  0  0  0  0
   -0.5748    1.9822   -0.6713 O   0  0  0  0  0  0  0  0  0  0  0  0
   -0.3804    2.6689   -1.3317 H   0  0  0  0  0  0  0  0  0  0  0  0
    0.5637    0.6080    1.8077 C   0  0  0  0  0  0  0  0  0  0  0  0
    0.0108    1.6318    2.1897 O   0  0  0  0  0  0  0  0  0  0  0  0
    1.4616   -0.0148    2.6565 N   0  0  0  0  0  0  0  0  0  0  0  0
    1.7277   -0.9653    2.4082 H   0  0  0  0  0  0  0  0  0  0  0  0
    1.7140    0.4422    4.0176 C   0  0  0  0  0  0  0  0  0  0  0  0
    0.7969    0.3949    4.6141 H   0  0  0  0  0  0  0  0  0  0  0  0
    2.4711   -0.1886    4.4933 H   0  0  0  0  0  0  0  0  0  0  0  0
    2.0796    1.4745    4.0139 H   0  0  0  0  0  0  0  0  0  0  0  0
  1  2  1  0  0  0  0
  2  3  1  0  0  0  0
  2  4  1  0  0  0  0
  2  5  1  0  0  0  0
  5  6  2  0  0  0  0
  5  7  1  0  0  0  0
  7  8  1  0  0  0  0
  7  9  1  0  0  0  0
  9 10  1  0  0  0  0
  9 11  1  0  0  0  0
  9 16  1  0  0  0  0
 11 12  1  0  0  0  0
 11 13  1  0  0  0  0
 11 14  1  0  0  0  0
 14 15  1  0  0  0  0
 16 17  2  0  0  0  0
 16 18  1  0  0  0  0
 18 19  1  0  0  0  0
 18 20  1  0  0  0  0
 20 21  1  0  0  0  0
 20 22  1  0  0  0  0
 20 23  1  0  0  0  0
M  END
$$$$

  -OEChem-01062216093D

 23 22  0     1  0  0  0  0  0999 V2000
   -2.6274   -3.6094    1.1529 H   0  0  0  0  0  0  0  0  0  0  0  0
   -2.6482   -2.5576    0.8545 C   0  0  0  0  0  0  0  0  0  0  0  0
   -3.1872   -1.9863    1.6142 H   0  0  0  0  0  0  0  0  0  0  0  0
   -3.1748   -2.4716   -0.0989 H   0  0  0  0  0  0  0  0  0  0  0  0
   -1.2347   -2.0256    0.7147 C   0  0  0  0  0  0  0  0  0  0  0  0
   -0.2793   -2.7525    0.9414 O   0  0  0  0  0  0  0  0  0  0  0  0
   -1.0281   -0.7114    0.3555 N   0  0  0  0  0  0  0  0  0  0  0  0
   -1.8402   -0.0974    0.3449 H   0  0  0  0  0  0  0  0  0  0  0  0
    0.2845   -0.0520    0.3980 C   0  0  1  0  0  0  0  0  0  0  0  0
    1.0654   -0.8030    0.2468 H   0  0  0  0  0  0  0  0  0  0  0  0
    0.3943    0.9159   -0.7883 C   0  0  0  0  0  0  0  0  0  0  0  0
    1.4114    1.3193   -0.8258 H   0  0  0  0  0  0  0  0  0  0  0  0
    0.2176    0.3715   -1.7219 H   0  0  0  0  0  0  0  0  0  0  0  0
   -0.5345    2.0002   -0.6844 O   0  0  0  0  0  0  0  0  0  0  0  0
   -0.3986    2.6497   -1.3953 H   0  0  0  0  0  0  0  0  0  0  0  0
    0.5640    0.6182    1.7595 C   0  0  0  0  0  0  0  0  0  0  0  0
   -0.2336    1.3961    2.2705 O   0  0  0  0  0  0  0  0  0  0  0  0
    1.6595    0.2120    2.5019 N   0  0  0  0  0  0  0  0  0  0  0  0
    2.1662   -0.5984    2.1561 H   0  0  0  0  0  0  0  0  0  0  0  0
    1.8739    0.6229    3.8844 C   0  0  0  0  0  0  0  0  0  0  0  0
    1.0756    0.2358    4.5264 H   0  0  0  0  0  0  0  0  0  0  0  0
    2.8310    0.2380    4.2492 H   0  0  0  0  0  0  0  0  0  0  0  0
    1.8910    1.7151    3.9631 H   0  0  0  0  0  0  0  0  0  0  0  0
  1  2  1  0  0  0  0
  2  3  1  0  0  0  0
  2  4  1  0  0  0  0
  2  5  1  0  0  0  0
  5  6  2  0  0  0  0
  5  7  1  0  0  0  0
  7  8  1  0  0  0  0
  7  9  1  0  0  0  0
  9 10  1  0  0  0  0
  9 11  1  0  0  0  0
  9 16  1  0  0  0  0
 11 12  1  0  0  0  0
 11 13  1  0  0  0  0
 11 14  1  0  0  0  0
 14 15  1  0  0  0  0
 16 17  2  0  0  0  0
 16 18  1  0  0  0  0
 18 19  1  0  0  0  0
 18 20  1  0  0  0  0
 20 21  1  0  0  0  0
 20 22  1  0  0  0  0
 20 23  1  0  0  0  0
M  END
$$$$

  -OEChem-01062216093D

 23 22  0     1  0  0  0  0  0999 V2000
   -2.6259   -3.6096    1.1657 H   0  0  0  0  0  0  0  0  0  0  0  0
   -2.6473   -2.5556    0.8752 C   0  0  0  0  0  0  0  0  0  0  0  0
   -3.1530   -1.9845    1.6577 H   0  0  0  0  0  0  0  0  0  0  0  0
   -3.2074   -2.4584   -0.0578 H   0  0  0  0  0  0  0  0  0  0  0  0
   -1.2345   -2.0358    0.6881 C   0  0  0  0  0  0  0  0  0  0  0  0
   -0.2800   -2.7754    0.8734 O   0  0  0  0  0  0  0  0  0  0  0  0
   -1.0296   -0.7232    0.3216 N   0  0  0  0  0  0  0  0  0  0  0  0
   -1.8381   -0.1061    0.3671 H   0  0  0  0  0  0  0  0  0  0  0  0
    0.2831   -0.0627    0.3814 C   0  0  1  0  0  0  0  0  0  0  0  0
    1.0677   -0.8123    0.2426 H   0  0  0  0  0  0  0  0  0  0  0  0
    0.4066    0.9199   -0.7890 C   0  0  0  0  0  0  0  0  0  0  0  0
    1.4244    1.3226   -0.8147 H   0  0  0  0  0  0  0  0  0  0  0  0
    0.2342    0.3885   -1.7308 H   0  0  0  0  0  0  0  0  0  0  0  0
   -0.5238    2.0017   -0.6721 O   0  0  0  0  0  0  0  0  0  0  0  0
   -0.4090    2.6437   -1.3937 H   0  0  0  0  0  0  0  0  0  0  0  0
    0.5407    0.6176    1.7417 C   0  0  0  0  0  0  0  0  0  0  0  0
   -0.3635    1.1782    2.3519 O   0  0  0  0  0  0  0  0  0  0  0  0
    1.7663    0.4617    2.3661 N   0  0  0  0  0  0  0  0  0  0  0  0
    2.4314   -0.1677    1.9268 H   0  0  0  0  0  0  0  0  0  0  0  0
    2.0206    0.8999    3.7332 C   0  0  0  0  0  0  0  0  0  0  0  0
    1.3739    0.3618    4.4341 H   0  0  0  0  0  0  0  0  0  0  0  0
    3.0629    0.7068    4.0043 H   0  0  0  0  0  0  0  0  0  0  0  0
    1.8326    1.9740    3.8336 H   0  0  0  0  0  0  0  0  0  0  0  0
  1  2  1  0  0  0  0
  2  3  1  0  0  0  0
  2  4  1  0  0  0  0
  2  5  1  0  0  0  0
  5  6  2  0  0  0  0
  5  7  1  0  0  0  0
  7  8  1  0  0  0  0
  7  9  1  0  0  0  0
  9 10  1  0  0  0  0
  9 11  1  0  0  0  0
  9 16  1  0  0  0  0
 11 12  1  0  0  0  0
 11 13  1  0  0  0  0
 11 14  1  0  0  0  0
 14 15  1  0  0  0  0
 16 17  2  0  0  0  0
 16 18  1  0  0  0  0
 18 19  1  0  0  0  0
 18 20  1  0  0  0  0
 20 21  1  0  0  0  0
 20 22  1  0  0  0  0
 20 23  1  0  0  0  0
M  END
$$$$

  -OEChem-01062216093D

 23 22  0     1  0  0  0  0  0999 V2000
   -2.6278   -3.6048    1.1788 H   0  0  0  0  0  0  0  0  0  0  0  0
   -2.6467   -2.5507    0.8884 C   0  0  0  0  0  0  0  0  0  0  0  0
   -3.1211   -1.9737    1.6862 H   0  0  0  0  0  0  0  0  0  0  0  0
   -3.2345   -2.4467   -0.0267 H   0  0  0  0  0  0  0  0  0  0  0  0
   -1.2351   -2.0463    0.6577 C   0  0  0  0  0  0  0  0  0  0  0  0
   -0.2843   -2.7990    0.8055 O   0  0  0  0  0  0  0  0  0  0  0  0
   -1.0298   -0.7344    0.2890 N   0  0  0  0  0  0  0  0  0  0  0  0
   -1.8340   -0.1164    0.3750 H   0  0  0  0  0  0  0  0  0  0  0  0
    0.2836   -0.0764    0.3716 C   0  0  1  0  0  0  0  0  0  0  0  0
    1.0724   -0.8237    0.2441 H   0  0  0  0  0  0  0  0  0  0  0  0
    0.4150    0.9190   -0.7862 C   0  0  0  0  0  0  0  0  0  0  0  0
    1.4318    1.3245   -0.8030 H   0  0  0  0  0  0  0  0  0  0  0  0
    0.2477    0.3989   -1.7352 H   0  0  0  0  0  0  0  0  0  0  0  0
   -0.5203    1.9957   -0.6566 O   0  0  0  0  0  0  0  0  0  0  0  0
   -0.4286    2.6304   -1.3882 H   0  0  0  0  0  0  0  0  0  0  0  0
    0.5193    0.6084    1.7338 C   0  0  0  0  0  0  0  0  0  0  0  0
   -0.4238    0.9638    2.4338 O   0  0  0  0  0  0  0  0  0  0  0  0
    1.8035    0.7212    2.2383 N   0  0  0  0  0  0  0  0  0  0  0  0
    2.5546    0.2948    1.7045 H   0  0  0  0  0  0  0  0  0  0  0  0
    2.0887    1.2138    3.5806 C   0  0  0  0  0  0  0  0  0  0  0  0
    1.6315    0.5621    4.3327 H   0  0  0  0  0  0  0  0  0  0  0  0
    3.1689    1.2381    3.7535 H   0  0  0  0  0  0  0  0  0  0  0  0
    1.6965    2.2284    3.7082 H   0  0  0  0  0  0  0  0  0  0  0  0
  1  2  1  0  0  0  0
  2  3  1  0  0  0  0
  2  4  1  0  0  0  0
  2  5  1  0  0  0  0
  5  6  2  0  0  0  0
  5  7  1  0  0  0  0
  7  8  1  0  0  0  0
  7  9  1  0  0  0  0
  9 10  1  0  0  0  0
  9 11  1  0  0  0  0
  9 16  1  0  0  0  0
 11 12  1  0  0  0  0
 11 13  1  0  0  0  0
 11 14  1  0  0  0  0
 14 15  1  0  0  0  0
 16 17  2  0  0  0  0
 16 18  1  0  0  0  0
 18 19  1  0  0  0  0
 18 20  1  0  0  0  0
 20 21  1  0  0  0  0
 20 22  1  0  0  0  0
 20 23  1  0  0  0  0
M  END
$$$$

  -OEChem-01062216093D

 23 22  0     1  0  0  0  0  0999 V2000
   -2.6356   -3.6106    1.1656 H   0  0  0  0  0  0  0  0  0  0  0  0
   -2.6525   -2.5546    0.8824 C   0  0  0  0  0  0  0  0  0  0  0  0
   -3.1144   -1.9811    1.6900 H   0  0  0  0  0  0  0  0  0  0  0  0
   -3.2498   -2.4415   -0.0253 H   0  0  0  0  0  0  0  0  0  0  0  0
   -1.2408   -2.0563    0.6390 C   0  0  0  0  0  0  0  0  0  0  0  0
   -0.2937   -2.8174    0.7656 O   0  0  0  0  0  0  0  0  0  0  0  0
   -1.0331   -0.7437    0.2730 N   0  0  0  0  0  0  0  0  0  0  0  0
   -1.8357   -0.1262    0.3730 H   0  0  0  0  0  0  0  0  0  0  0  0
    0.2821   -0.0899    0.3750 C   0  0  1  0  0  0  0  0  0  0  0  0
    1.0737   -0.8354    0.2536 H   0  0  0  0  0  0  0  0  0  0  0  0
    0.4163    0.9139   -0.7753 C   0  0  0  0  0  0  0  0  0  0  0  0
    1.4324    1.3213   -0.7892 H   0  0  0  0  0  0  0  0  0  0  0  0
    0.2503    0.4003   -1.7282 H   0  0  0  0  0  0  0  0  0  0  0  0
   -0.5236    1.9861   -0.6365 O   0  0  0  0  0  0  0  0  0  0  0  0
   -0.4473    2.6168   -1.3736 H   0  0  0  0  0  0  0  0  0  0  0  0
    0.5066    0.5950    1.7401 C   0  0  0  0  0  0  0  0  0  0  0  0
   -0.4211    0.7555    2.5274 O   0  0  0  0  0  0  0  0  0  0  0  0
    1.7796    0.9825    2.1227 N   0  0  0  0  0  0  0  0  0  0  0  0
    2.5458    0.7706    1.4918 H   0  0  0  0  0  0  0  0  0  0  0  0
    2.0805    1.5509    3.4310 C   0  0  0  0  0  0  0  0  0  0  0  0
    1.8191    0.8434    4.2251 H   0  0  0  0  0  0  0  0  0  0  0  0
    3.1480    1.7785    3.5080 H   0  0  0  0  0  0  0  0  0  0  0  0
    1.5177    2.4777    3.5850 H   0  0  0  0  0  0  0  0  0  0  0  0
  1  2  1  0  0  0  0
  2  3  1  0  0  0  0
  2  4  1  0  0  0  0
  2  5  1  0  0  0  0
  5  6  2  0  0  0  0
  5  7  1  0  0  0  0
  7  8  1  0  0  0  0
  7  9  1  0  0  0  0
  9 10  1  0  0  0  0
  9 11  1  0  0  0  0
  9 16  1  0  0  0  0
 11 12  1  0  0  0  0
 11 13  1  0  0  0  0
 11 14  1  0  0  0  0
 14 15  1  0  0  0  0
 16 17  2  0  0  0  0
 16 18  1  0  0  0  0
 18 19  1  0  0  0  0
 18 20  1  0  0  0  0
 20 21  1  0  0  0  0
 20 22  1  0  0  0  0
 20 23  1  0  0  0  0
M  END
$$$$

  -OEChem-01062216093D

 23 22  0     1  0  0  0  0  0999 V2000
   -2.5889   -3.6164    1.1753 H   0  0  0  0  0  0  0  0  0  0  0  0
   -2.6208   -2.5524    0.9249 C   0  0  0  0  0  0  0  0  0  0  0  0
   -3.0119   -2.0004    1.7833 H   0  0  0  0  0  0  0  0  0  0  0  0
   -3.2878   -2.4094    0.0716 H   0  0  0  0  0  0  0  0  0  0  0  0
   -1.2291   -2.0541    0.5856 C   0  0  0  0  0  0  0  0  0  0  0  0
   -0.2814   -2.8254    0.5972 O   0  0  0  0  0  0  0  0  0  0  0  0
   -1.0399   -0.7337    0.2336 N   0  0  0  0  0  0  0  0  0  0  0  0
   -1.8340   -0.1245    0.4140 H   0  0  0  0  0  0  0  0  0  0  0  0
    0.2799   -0.0947    0.3654 C   0  0  1  0  0  0  0  0  0  0  0  0
    1.0480   -0.7761   -0.0136 H   0  0  0  0  0  0  0  0  0  0  0  0
    0.2870    1.1549   -0.5229 C   0  0  0  0  0  0  0  0  0  0  0  0
    1.2926    1.5869   -0.5462 H   0  0  0  0  0  0  0  0  0  0  0  0
    0.0230    0.8752   -1.5483 H   0  0  0  0  0  0  0  0  0  0  0  0
   -0.6410    2.1317   -0.0357 O   0  0  0  0  0  0  0  0  0  0  0  0
   -0.6443    2.9243   -0.6007 H   0  0  0  0  0  0  0  0  0  0  0  0
    0.6591    0.2479    1.8257 C   0  0  0  0  0  0  0  0  0  0  0  0
   -0.1116    0.0187    2.7528 O   0  0  0  0  0  0  0  0  0  0  0  0
    1.8724    0.8518    2.1114 N   0  0  0  0  0  0  0  0  0  0  0  0
    2.5077    1.0231    1.3393 H   0  0  0  0  0  0  0  0  0  0  0  0
    2.2957    1.1948    3.4636 C   0  0  0  0  0  0  0  0  0  0  0  0
    2.3320    0.2989    4.0924 H   0  0  0  0  0  0  0  0  0  0  0  0
    3.2929    1.6447    3.4456 H   0  0  0  0  0  0  0  0  0  0  0  0
    1.6004    1.9124    3.9120 H   0  0  0  0  0  0  0  0  0  0  0  0
  1  2  1  0  0  0  0
  2  3  1  0  0  0  0
  2  4  1  0  0  0  0
  2  5  1  0  0  0  0
  5  6  2  0  0  0  0
  5  7  1  0  0  0  0
  7  8  1  0  0  0  0
  7  9  1  0  0  0  0
  9 10  1  0  0  0  0
  9 11  1  0  0  0  0
  9 16  1  0  0  0  0
 11 12  1  0  0  0  0
 11 13  1  0  0  0  0
 11 14  1  0  0  0  0
 14 15  1  0  0  0  0
 16 17  2  0  0  0  0
 16 18  1  0  0  0  0
 18 19  1  0  0  0  0
 18 20  1  0  0  0  0
 20 21  1  0  0  0  0
 20 22  1  0  0  0  0
 20 23  1  0  0  0  0
M  END
$$$$

  -OEChem-01062216093D

 23 22  0     1  0  0  0  0  0999 V2000
   -2.5945   -3.6128    1.1644 H   0  0  0  0  0  0  0  0  0  0  0  0
   -2.6186   -2.5422    0.9435 C   0  0  0  0  0  0  0  0  0  0  0  0
   -2.9701   -2.0087    1.8302 H   0  0  0  0  0  0  0  0  0  0  0  0
   -3.3132   -2.3663    0.1189 H   0  0  0  0  0  0  0  0  0  0  0  0
   -1.2320   -2.0555    0.5684 C   0  0  0  0  0  0  0  0  0  0  0  0
   -0.2971   -2.8409    0.5277 O   0  0  0  0  0  0  0  0  0  0  0  0
   -1.0368   -0.7325    0.2279 N   0  0  0  0  0  0  0  0  0  0  0  0
   -1.8261   -0.1217    0.4213 H   0  0  0  0  0  0  0  0  0  0  0  0
    0.2883   -0.1029    0.3614 C   0  0  1  0  0  0  0  0  0  0  0  0
    1.0526   -0.7865   -0.0214 H   0  0  0  0  0  0  0  0  0  0  0  0
    0.2970    1.1455   -0.5298 C   0  0  0  0  0  0  0  0  0  0  0  0
    1.3038    1.5735   -0.5631 H   0  0  0  0  0  0  0  0  0  0  0  0
    0.0260    0.8632   -1.5527 H   0  0  0  0  0  0  0  0  0  0  0  0
   -0.6272    2.1261   -0.0421 O   0  0  0  0  0  0  0  0  0  0  0  0
   -0.6579    2.9011   -0.6308 H   0  0  0  0  0  0  0  0  0  0  0  0
    0.6752    0.2250    1.8258 C   0  0  0  0  0  0  0  0  0  0  0  0
    0.0215   -0.2139    2.7667 O   0  0  0  0  0  0  0  0  0  0  0  0
    1.7273    1.0812    2.1086 N   0  0  0  0  0  0  0  0  0  0  0  0
    2.2072    1.5091    1.3242 H   0  0  0  0  0  0  0  0  0  0  0  0
    2.0855    1.4906    3.4612 C   0  0  0  0  0  0  0  0  0  0  0  0
    2.3331    0.6167    4.0730 H   0  0  0  0  0  0  0  0  0  0  0  0
    2.9561    2.1528    3.4380 H   0  0  0  0  0  0  0  0  0  0  0  0
    1.2546    2.0267    3.9317 H   0  0  0  0  0  0  0  0  0  0  0  0
  1  2  1  0  0  0  0
  2  3  1  0  0  0  0
  2  4  1  0  0  0  0
  2  5  1  0  0  0  0
  5  6  2  0  0  0  0
  5  7  1  0  0  0  0
  7  8  1  0  0  0  0
  7  9  1  0  0  0  0
  9 10  1  0  0  0  0
  9 11  1  0  0  0  0
  9 16  1  0  0  0  0
 11 12  1  0  0  0  0
 11 13  1  0  0  0  0
 11 14  1  0  0  0  0
 14 15  1  0  0  0  0
 16 17  2  0  0  0  0
 16 18  1  0  0  0  0
 18 19  1  0  0  0  0
 18 20  1  0  0  0  0
 20 21  1  0  0  0  0
 20 22  1  0  0  0  0
 20 23  1  0  0  0  0
M  END
$$$$

  -OEChem-01062216093D

 23 22  0     1  0  0  0  0  0999 V2000
   -2.6018   -3.6128    1.1426 H   0  0  0  0  0  0  0  0  0  0  0  0
   -2.6170   -2.5350    0.9585 C   0  0  0  0  0  0  0  0  0  0  0  0
   -2.9461   -2.0277    1.8687 H   0  0  0  0  0  0  0  0  0  0  0  0
   -3.3239   -2.3235    0.1530 H   0  0  0  0  0  0  0  0  0  0  0  0
   -1.2312   -2.0527    0.5750 C   0  0  0  0  0  0  0  0  0  0  0  0
   -0.3070   -2.8474    0.4966 O   0  0  0  0  0  0  0  0  0  0  0  0
   -1.0326   -0.7281    0.2409 N   0  0  0  0  0  0  0  0  0  0  0  0
   -1.8220   -0.1173    0.4320 H   0  0  0  0  0  0  0  0  0  0  0  0
    0.2946   -0.0993    0.3640 C   0  0  1  0  0  0  0  0  0  0  0  0
    1.0539   -0.7890   -0.0184 H   0  0  0  0  0  0  0  0  0  0  0  0
    0.3107    1.1378   -0.5434 C   0  0  0  0  0  0  0  0  0  0  0  0
    1.3209    1.5572   -0.5873 H   0  0  0  0  0  0  0  0  0  0  0  0
    0.0346    0.8412   -1.5609 H   0  0  0  0  0  0  0  0  0  0  0  0
   -0.6078    2.1312   -0.0705 O   0  0  0  0  0  0  0  0  0  0  0  0
   -0.6678    2.8758   -0.6956 H   0  0  0  0  0  0  0  0  0  0  0  0
    0.6962    0.2221    1.8276 C   0  0  0  0  0  0  0  0  0  0  0  0
    0.2291   -0.4154    2.7647 O   0  0  0  0  0  0  0  0  0  0  0  0
    1.5269    1.2904    2.1252 N   0  0  0  0  0  0  0  0  0  0  0  0
    1.7361    1.9278    1.3639 H   0  0  0  0  0  0  0  0  0  0  0  0
    1.8161    1.7180    3.4889 C   0  0  0  0  0  0  0  0  0  0  0  0
    2.2618    0.8980    4.0620 H   0  0  0  0  0  0  0  0  0  0  0  0
    2.5217    2.5541    3.4814 H   0  0  0  0  0  0  0  0  0  0  0  0
    0.8985    2.0416    3.9914 H   0  0  0  0  0  0  0  0  0  0  0  0
  1  2  1  0  0  0  0
  2  3  1  0  0  0  0
  2  4  1  0  0  0  0
  2  5  1  0  0  0  0
  5  6  2  0  0  0  0
  5  7  1  0  0  0  0
  7  8  1  0  0  0  0
  7  9  1  0  0  0  0
  9 10  1  0  0  0  0
  9 11  1  0  0  0  0
  9 16  1  0  0  0  0
 11 12  1  0  0  0  0
 11 13  1  0  0  0  0
 11 14  1  0  0  0  0
 14 15  1  0  0  0  0
 16 17  2  0  0  0  0
 16 18  1  0  0  0  0
 18 19  1  0  0  0  0
 18 20  1  0  0  0  0
 20 21  1  0  0  0  0
 20 22  1  0  0  0  0
 20 23  1  0  0  0  0
M  END
$$$$

  -OEChem-01062216093D

 23 22  0     1  0  0  0  0  0999 V2000
   -2.5890   -3.5954    1.2009 H   0  0  0  0  0  0  0  0  0  0  0  0
   -2.6124   -2.5256    0.9756 C   0  0  0  0  0  0  0  0  0  0  0  0
   -2.9510   -1.9878    1.8643 H   0  0  0  0  0  0  0  0  0  0  0  0
   -3.3165   -2.3510    0.1590 H   0  0  0  0  0  0  0  0  0  0  0  0
   -1.2285   -2.0468    0.5806 C   0  0  0  0  0  0  0  0  0  0  0  0
   -0.3114   -2.8465    0.4814 O   0  0  0  0  0  0  0  0  0  0  0  0
   -1.0296   -0.7218    0.2466 N   0  0  0  0  0  0  0  0  0  0  0  0
   -1.8235   -0.1122    0.4206 H   0  0  0  0  0  0  0  0  0  0  0  0
    0.2956   -0.0875    0.3660 C   0  0  1  0  0  0  0  0  0  0  0  0
    1.0555   -0.7818   -0.0070 H   0  0  0  0  0  0  0  0  0  0  0  0
    0.3265    1.1384   -0.5571 C   0  0  0  0  0  0  0  0  0  0  0  0
    1.3406    1.5500   -0.5949 H   0  0  0  0  0  0  0  0  0  0  0  0
    0.0602    0.8279   -1.5731 H   0  0  0  0  0  0  0  0  0  0  0  0
   -0.5903    2.1474   -0.1121 O   0  0  0  0  0  0  0  0  0  0  0  0
   -0.6619    2.8633   -0.7696 H   0  0  0  0  0  0  0  0  0  0  0  0
    0.6948    0.2349    1.8297 C   0  0  0  0  0  0  0  0  0  0  0  0
    0.4645   -0.5575    2.7346 O   0  0  0  0  0  0  0  0  0  0  0  0
    1.2520    1.4567    2.1680 N   0  0  0  0  0  0  0  0  0  0  0  0
    1.1734    2.1824    1.4605 H   0  0  0  0  0  0  0  0  0  0  0  0
    1.5040    1.8597    3.5466 C   0  0  0  0  0  0  0  0  0  0  0  0
    2.1680    1.1423    4.0406 H   0  0  0  0  0  0  0  0  0  0  0  0
    1.9833    2.8430    3.5712 H   0  0  0  0  0  0  0  0  0  0  0  0
    0.5653    1.9152    4.1079 H   0  0  0  0  0  0  0  0  0  0  0  0
  1  2  1  0  0  0  0
  2  3  1  0  0  0  0
  2  4  1  0  0  0  0
  2  5  1  0  0  0  0
  5  6  2  0  0  0  0
  5  7  1  0  0  0  0
  7  8  1  0  0  0  0
  7  9  1  0  0  0  0
  9 10  1  0  0  0  0
  9 11  1  0  0  0  0
  9 16  1  0  0  0  0
 11 12  1  0  0  0  0
 11 13  1  0  0  0  0
 11 14  1  0  0  0  0
 14 15  1  0  0  0  0
 16 17  2  0  0  0  0
 16 18  1  0  0  0  0
 18 19  1  0  0  0  0
 18 20  1  0  0  0  0
 20 21  1  0  0  0  0
 20 22  1  0  0  0  0
 20 23  1  0  0  0  0
M  END
$$$$

  -OEChem-01062216093D

 23 22  0     1  0  0  0  0  0999 V2000
   -2.6034   -3.6024    1.1739 H   0  0  0  0  0  0  0  0  0  0  0  0
   -2.6226   -2.5304    0.9578 C   0  0  0  0  0  0  0  0  0  0  0  0
   -2.9851   -2.0010    1.8422 H   0  0  0  0  0  0  0  0  0  0  0  0
   -3.3062   -2.3502    0.1250 H   0  0  0  0  0  0  0  0  0  0  0  0
   -1.2295   -2.0467    0.6017 C   0  0  0  0  0  0  0  0  0  0  0  0
   -0.3101   -2.8449    0.5265 O   0  0  0  0  0  0  0  0  0  0  0  0
   -1.0269   -0.7223    0.2672 N   0  0  0  0  0  0  0  0  0  0  0  0
   -1.8290   -0.1136    0.4010 H   0  0  0  0  0  0  0  0  0  0  0  0
    0.2943   -0.0792    0.3833 C   0  0  1  0  0  0  0  0  0  0  0  0
    1.0564   -0.7745    0.0161 H   0  0  0  0  0  0  0  0  0  0  0  0
    0.3248    1.1376   -0.5540 C   0  0  0  0  0  0  0  0  0  0  0  0
    1.3385    1.5512   -0.5850 H   0  0  0  0  0  0  0  0  0  0  0  0
    0.0698    0.8139   -1.5688 H   0  0  0  0  0  0  0  0  0  0  0  0
   -0.5963    2.1554   -0.1336 O   0  0  0  0  0  0  0  0  0  0  0  0
   -0.6601    2.8583   -0.8066 H   0  0  0  0  0  0  0  0  0  0  0  0
    0.6956    0.2504    1.8434 C   0  0  0  0  0  0  0  0  0  0  0  0
    0.7356   -0.6240    2.6981 O   0  0  0  0  0  0  0  0  0  0  0  0
    0.9515    1.5524    2.2361 N   0  0  0  0  0  0  0  0  0  0  0  0
    0.6630    2.2677    1.5708 H   0  0  0  0  0  0  0  0  0  0  0  0
    1.1776    1.9394    3.6233 C   0  0  0  0  0  0  0  0  0  0  0  0
    2.0239    1.3854    4.0434 H   0  0  0  0  0  0  0  0  0  0  0  0
    1.4034    3.0082    3.6846 H   0  0  0  0  0  0  0  0  0  0  0  0
    0.2880    1.7358    4.2284 H   0  0  0  0  0  0  0  0  0  0  0  0
  1  2  1  0  0  0  0
  2  3  1  0  0  0  0
  2  4  1  0  0  0  0
  2  5  1  0  0  0  0
  5  6  2  0  0  0  0
  5  7  1  0  0  0  0
  7  8  1  0  0  0  0
  7  9  1  0  0  0  0
  9 10  1  0  0  0  0
  9 11  1  0  0  0  0
  9 16  1  0  0  0  0
 11 12  1  0  0  0  0
 11 13  1  0  0  0  0
 11 14  1  0  0  0  0
 14 15  1  0  0  0  0
 16 17  2  0  0  0  0
 16 18  1  0  0  0  0
 18 19  1  0  0  0  0
 18 20  1  0  0  0  0
 20 21  1  0  0  0  0
 20 22  1  0  0  0  0
 20 23  1  0  0  0  0
M  END
$$$$

  -OEChem-01062216093D

 23 22  0     1  0  0  0  0  0999 V2000
   -2.6233   -3.5996    1.1957 H   0  0  0  0  0  0  0  0  0  0  0  0
   -2.6470   -2.5464    0.9015 C   0  0  0  0  0  0  0  0  0  0  0  0
   -3.0958   -1.9668    1.7116 H   0  0  0  0  0  0  0  0  0  0  0  0
   -3.2601   -2.4444    0.0031 H   0  0  0  0  0  0  0  0  0  0  0  0
   -1.2393   -2.0517    0.6281 C   0  0  0  0  0  0  0  0  0  0  0  0
   -0.3109   -2.8414    0.6235 O   0  0  0  0  0  0  0  0  0  0  0  0
   -1.0305   -0.7289    0.2929 N   0  0  0  0  0  0  0  0  0  0  0  0
   -1.8423   -0.1221    0.3631 H   0  0  0  0  0  0  0  0  0  0  0  0
    0.2844   -0.0744    0.4131 C   0  0  1  0  0  0  0  0  0  0  0  0
    1.0518   -0.7681    0.0530 H   0  0  0  0  0  0  0  0  0  0  0  0
    0.3074    1.1326   -0.5375 C   0  0  0  0  0  0  0  0  0  0  0  0
    1.3172    1.5557   -0.5603 H   0  0  0  0  0  0  0  0  0  0  0  0
    0.0685    0.7951   -1.5517 H   0  0  0  0  0  0  0  0  0  0  0  0
   -0.6259    2.1510   -0.1417 O   0  0  0  0  0  0  0  0  0  0  0  0
   -0.6602    2.8587   -0.8121 H   0  0  0  0  0  0  0  0  0  0  0  0
    0.6825    0.2674    1.8696 C   0  0  0  0  0  0  0  0  0  0  0  0
    1.0211   -0.6100    2.6507 O   0  0  0  0  0  0  0  0  0  0  0  0
    0.6295    1.5677    2.3371 N   0  0  0  0  0  0  0  0  0  0  0  0
    0.1971    2.2439    1.7081 H   0  0  0  0  0  0  0  0  0  0  0  0
    0.8764    1.9397    3.7245 C   0  0  0  0  0  0  0  0  0  0  0  0
    1.8866    1.6438    4.0264 H   0  0  0  0  0  0  0  0  0  0  0  0
    0.7844    3.0230    3.8471 H   0  0  0  0  0  0  0  0  0  0  0  0
    0.1536    1.4519    4.3867 H   0  0  0  0  0  0  0  0  0  0  0  0
  1  2  1  0  0  0  0
  2  3  1  0  0  0  0
  2  4  1  0  0  0  0
  2  5  1  0  0  0  0
  5  6  2  0  0  0  0
  5  7  1  0  0  0  0
  7  8  1  0  0  0  0
  7  9  1  0  0  0  0
  9 10  1  0  0  0  0
  9 11  1  0  0  0  0
  9 16  1  0  0  0  0
 11 12  1  0  0  0  0
 11 13  1  0  0  0  0
 11 14  1  0  0  0  0
 14 15  1  0  0  0  0
 16 17  2  0  0  0  0
 16 18  1  0  0  0  0
 18 19  1  0  0  0  0
 18 20  1  0  0  0  0
 20 21  1  0  0  0  0
 20 22  1  0  0  0  0
 20 23  1  0  0  0  0
M  END
$$$$

  -OEChem-01062216093D

 23 22  0     1  0  0  0  0  0999 V2000
   -2.6673   -3.6415    1.0876 H   0  0  0  0  0  0  0  0  0  0  0  0
   -2.6784   -2.5836    0.8098 C   0  0  0  0  0  0  0  0  0  0  0  0
   -3.1903   -2.0206    1.5937 H   0  0  0  0  0  0  0  0  0  0  0  0
   -3.2252   -2.4717   -0.1294 H   0  0  0  0  0  0  0  0  0  0  0  0
   -1.2589   -2.0732    0.6480 C   0  0  0  0  0  0  0  0  0  0  0  0
   -0.3230   -2.8459    0.7508 O   0  0  0  0  0  0  0  0  0  0  0  0
   -1.0406   -0.7514    0.3171 N   0  0  0  0  0  0  0  0  0  0  0  0
   -1.8593   -0.1500    0.3097 H   0  0  0  0  0  0  0  0  0  0  0  0
    0.2666   -0.0854    0.4550 C   0  0  1  0  0  0  0  0  0  0  0  0
    1.0428   -0.7736    0.1026 H   0  0  0  0  0  0  0  0  0  0  0  0
    0.2896    1.1229   -0.4934 C   0  0  0  0  0  0  0  0  0  0  0  0
    1.2959    1.5554   -0.4985 H   0  0  0  0  0  0  0  0  0  0  0  0
    0.0698    0.7853   -1.5117 H   0  0  0  0  0  0  0  0  0  0  0  0
   -0.6583    2.1335   -0.1105 O   0  0  0  0  0  0  0  0  0  0  0  0
   -0.6565    2.8619   -0.7593 H   0  0  0  0  0  0  0  0  0  0  0  0
    0.6450    0.2644    1.9131 C   0  0  0  0  0  0  0  0  0  0  0  0
    1.2875   -0.5163    2.6004 O   0  0  0  0  0  0  0  0  0  0  0  0
    0.2910    1.4813    2.4650 N   0  0  0  0  0  0  0  0  0  0  0  0
   -0.2302    2.1133    1.8575 H   0  0  0  0  0  0  0  0  0  0  0  0
    0.6164    1.8883    3.8257 C   0  0  0  0  0  0  0  0  0  0  0  0
    1.7013    1.9001    3.9732 H   0  0  0  0  0  0  0  0  0  0  0  0
    0.2296    2.8927    4.0223 H   0  0  0  0  0  0  0  0  0  0  0  0
    0.1697    1.1974    4.5484 H   0  0  0  0  0  0  0  0  0  0  0  0
  1  2  1  0  0  0  0
  2  3  1  0  0  0  0
  2  4  1  0  0  0  0
  2  5  1  0  0  0  0
  5  6  2  0  0  0  0
  5  7  1  0  0  0  0
  7  8  1  0  0  0  0
  7  9  1  0  0  0  0
  9 10  1  0  0  0  0
  9 11  1  0  0  0  0
  9 16  1  0  0  0  0
 11 12  1  0  0  0  0
 11 13  1  0  0  0  0
 11 14  1  0  0  0  0
 14 15  1  0  0  0  0
 16 17  2  0  0  0  0
 16 18  1  0  0  0  0
 18 19  1  0  0  0  0
 18 20  1  0  0  0  0
 20 21  1  0  0  0  0
 20 22  1  0  0  0  0
 20 23  1  0  0  0  0
M  END
$$$$

  -OEChem-01062216093D

 23 22  0     1  0  0  0  0  0999 V2000
   -2.7041   -3.6856    0.9825 H   0  0  0  0  0  0  0  0  0  0  0  0
   -2.7081   -2.6229    0.7236 C   0  0  0  0  0  0  0  0  0  0  0  0
   -3.2666   -2.0775    1.4881 H   0  0  0  0  0  0  0  0  0  0  0  0
   -3.2039   -2.4981   -0.2419 H   0  0  0  0  0  0  0  0  0  0  0  0
   -1.2857   -2.1003    0.6495 C   0  0  0  0  0  0  0  0  0  0  0  0
   -0.3518   -2.8573    0.8443 O   0  0  0  0  0  0  0  0  0  0  0  0
   -1.0565   -0.7778    0.3303 N   0  0  0  0  0  0  0  0  0  0  0  0
   -1.8738   -0.1788    0.2559 H   0  0  0  0  0  0  0  0  0  0  0  0
    0.2490   -0.1129    0.4907 C   0  0  1  0  0  0  0  0  0  0  0  0
    1.0289   -0.7969    0.1377 H   0  0  0  0  0  0  0  0  0  0  0  0
    0.2827    1.1134   -0.4312 C   0  0  0  0  0  0  0  0  0  0  0  0
    1.2886    1.5460   -0.4132 H   0  0  0  0  0  0  0  0  0  0  0  0
    0.0752    0.7998   -1.4597 H   0  0  0  0  0  0  0  0  0  0  0  0
   -0.6691    2.1142   -0.0327 O   0  0  0  0  0  0  0  0  0  0  0  0
   -0.6246    2.8803   -0.6347 H   0  0  0  0  0  0  0  0  0  0  0  0
    0.6083    0.2287    1.9532 C   0  0  0  0  0  0  0  0  0  0  0  0
    1.5032   -0.3700    2.5333 O   0  0  0  0  0  0  0  0  0  0  0  0
   -0.0062    1.2869    2.5966 N   0  0  0  0  0  0  0  0  0  0  0  0
   -0.5997    1.8706    2.0079 H   0  0  0  0  0  0  0  0  0  0  0  0
    0.3906    1.7708    3.9124 C   0  0  0  0  0  0  0  0  0  0  0  0
    1.4108    2.1673    3.8830 H   0  0  0  0  0  0  0  0  0  0  0  0
   -0.2839    2.5670    4.2409 H   0  0  0  0  0  0  0  0  0  0  0  0
    0.3485    0.9600    4.6474 H   0  0  0  0  0  0  0  0  0  0  0  0
  1  2  1  0  0  0  0
  2  3  1  0  0  0  0
  2  4  1  0  0  0  0
  2  5  1  0  0  0  0
  5  6  2  0  0  0  0
  5  7  1  0  0  0  0
  7  8  1  0  0  0  0
  7  9  1  0  0  0  0
  9 10  1  0  0  0  0
  9 11  1  0  0  0  0
  9 16  1  0  0  0  0
 11 12  1  0  0  0  0
 11 13  1  0  0  0  0
 11 14  1  0  0  0  0
 14 15  1  0  0  0  0
 16 17  2  0  0  0  0
 16 18  1  0  0  0  0
 18 19  1  0  0  0  0
 18 20  1  0  0  0  0
 20 21  1  0  0  0  0
 20 22  1  0  0  0  0
 20 23  1  0  0  0  0
M  END
$$$$

  -OEChem-01062216093D

 23 22  0     1  0  0  0  0  0999 V2000
   -2.7227   -3.7127    0.9235 H   0  0  0  0  0  0  0  0  0  0  0  0
   -2.7198   -2.6506    0.6627 C   0  0  0  0  0  0  0  0  0  0  0  0
   -3.3268   -2.1086    1.3917 H   0  0  0  0  0  0  0  0  0  0  0  0
   -3.1589   -2.5312   -0.3306 H   0  0  0  0  0  0  0  0  0  0  0  0
   -1.2998   -2.1164    0.6697 C   0  0  0  0  0  0  0  0  0  0  0  0
   -0.3728   -2.8579    0.9421 O   0  0  0  0  0  0  0  0  0  0  0  0
   -1.0617   -0.7962    0.3498 N   0  0  0  0  0  0  0  0  0  0  0  0
   -1.8722   -0.2003    0.2089 H   0  0  0  0  0  0  0  0  0  0  0  0
    0.2475   -0.1366    0.5014 C   0  0  1  0  0  0  0  0  0  0  0  0
    1.0229   -0.8163    0.1308 H   0  0  0  0  0  0  0  0  0  0  0  0
    0.2617    1.1054   -0.3962 C   0  0  0  0  0  0  0  0  0  0  0  0
    1.2661    1.5423   -0.3866 H   0  0  0  0  0  0  0  0  0  0  0  0
    0.0350    0.8155   -1.4277 H   0  0  0  0  0  0  0  0  0  0  0  0
   -0.6874    2.0875    0.0507 O   0  0  0  0  0  0  0  0  0  0  0  0
   -0.6232    2.8919   -0.4968 H   0  0  0  0  0  0  0  0  0  0  0  0
    0.6247    0.2066    1.9569 C   0  0  0  0  0  0  0  0  0  0  0  0
    1.6894   -0.1709    2.4276 O   0  0  0  0  0  0  0  0  0  0  0  0
   -0.1768    1.0512    2.7032 N   0  0  0  0  0  0  0  0  0  0  0  0
   -0.8943    1.5425    2.1739 H   0  0  0  0  0  0  0  0  0  0  0  0
    0.2038    1.5591    4.0147 C   0  0  0  0  0  0  0  0  0  0  0  0
    1.1083    2.1718    3.9417 H   0  0  0  0  0  0  0  0  0  0  0  0
   -0.6009    2.1732    4.4300 H   0  0  0  0  0  0  0  0  0  0  0  0
    0.3946    0.7307    4.7050 H   0  0  0  0  0  0  0  0  0  0  0  0
  1  2  1  0  0  0  0
  2  3  1  0  0  0  0
  2  4  1  0  0  0  0
  2  5  1  0  0  0  0
  5  6  2  0  0  0  0
  5  7  1  0  0  0  0
  7  8  1  0  0  0  0
  7  9  1  0  0  0  0
  9 10  1  0  0  0  0
  9 11  1  0  0  0  0
  9 16  1  0  0  0  0
 11 12  1  0  0  0  0
 11 13  1  0  0  0  0
 11 14  1  0  0  0  0
 14 15  1  0  0  0  0
 16 17  2  0  0  0  0
 16 18  1  0  0  0  0
 18 19  1  0  0  0  0
 18 20  1  0  0  0  0
 20 21  1  0  0  0  0
 20 22  1  0  0  0  0
 20 23  1  0  0  0  0
M  END
$$$$

  -OEChem-01062216093D

 23 22  0     1  0  0  0  0  0999 V2000
   -2.7375   -3.7330    0.8743 H   0  0  0  0  0  0  0  0  0  0  0  0
   -2.7322   -2.6721    0.6081 C   0  0  0  0  0  0  0  0  0  0  0  0
   -3.3806   -2.1326    1.3023 H   0  0  0  0  0  0  0  0  0  0  0  0
   -3.1219   -2.5622   -0.4066 H   0  0  0  0  0  0  0  0  0  0  0  0
   -1.3196   -2.1242    0.6830 C   0  0  0  0  0  0  0  0  0  0  0  0
   -0.4021   -2.8508    1.0205 O   0  0  0  0  0  0  0  0  0  0  0  0
   -1.0736   -0.8058    0.3624 N   0  0  0  0  0  0  0  0  0  0  0  0
   -1.8716   -0.2163    0.1433 H   0  0  0  0  0  0  0  0  0  0  0  0
    0.2414   -0.1552    0.5063 C   0  0  1  0  0  0  0  0  0  0  0  0
    1.0086   -0.8370    0.1233 H   0  0  0  0  0  0  0  0  0  0  0  0
    0.2514    1.0964   -0.3745 C   0  0  0  0  0  0  0  0  0  0  0  0
    1.2569    1.5310   -0.3690 H   0  0  0  0  0  0  0  0  0  0  0  0
    0.0111    0.8258   -1.4079 H   0  0  0  0  0  0  0  0  0  0  0  0
   -0.6900    2.0677    0.1075 O   0  0  0  0  0  0  0  0  0  0  0  0
   -0.6012    2.9013   -0.3898 H   0  0  0  0  0  0  0  0  0  0  0  0
    0.6425    0.1894    1.9537 C   0  0  0  0  0  0  0  0  0  0  0  0
    1.8058    0.0611    2.3135 O   0  0  0  0  0  0  0  0  0  0  0  0
   -0.2682    0.7781    2.8125 N   0  0  0  0  0  0  0  0  0  0  0  0
   -1.1333    1.0932    2.3835 H   0  0  0  0  0  0  0  0  0  0  0  0
    0.0971    1.2954    4.1247 C   0  0  0  0  0  0  0  0  0  0  0  0
    0.8087    2.1216    4.0256 H   0  0  0  0  0  0  0  0  0  0  0  0
   -0.7915    1.6608    4.6479 H   0  0  0  0  0  0  0  0  0  0  0  0
    0.5539    0.5077    4.7334 H   0  0  0  0  0  0  0  0  0  0  0  0
  1  2  1  0  0  0  0
  2  3  1  0  0  0  0
  2  4  1  0  0  0  0
  2  5  1  0  0  0  0
  5  6  2  0  0  0  0
  5  7  1  0  0  0  0
  7  8  1  0  0  0  0
  7  9  1  0  0  0  0
  9 10  1  0  0  0  0
  9 11  1  0  0  0  0
  9 16  1  0  0  0  0
 11 12  1  0  0  0  0
 11 13  1  0  0  0  0
 11 14  1  0  0  0  0
 14 15  1  0  0  0  0
 16 17  2  0  0  0  0
 16 18  1  0  0  0  0
 18 19  1  0  0  0  0
 18 20  1  0  0  0  0
 20 21  1  0  0  0  0
 20 22  1  0  0  0  0
 20 23  1  0  0  0  0
M  END
$$$$

  -OEChem-01062216093D

 23 22  0     1  0  0  0  0  0999 V2000
   -2.7516   -3.7310    0.8647 H   0  0  0  0  0  0  0  0  0  0  0  0
   -2.7382   -2.6770    0.5729 C   0  0  0  0  0  0  0  0  0  0  0  0
   -3.4178   -2.1233    1.2249 H   0  0  0  0  0  0  0  0  0  0  0  0
   -3.0847   -2.5939   -0.4600 H   0  0  0  0  0  0  0  0  0  0  0  0
   -1.3319   -2.1211    0.6944 C   0  0  0  0  0  0  0  0  0  0  0  0
   -0.4240   -2.8348    1.0820 O   0  0  0  0  0  0  0  0  0  0  0  0
   -1.0805   -0.8047    0.3705 N   0  0  0  0  0  0  0  0  0  0  0  0
   -1.8661   -0.2240    0.0896 H   0  0  0  0  0  0  0  0  0  0  0  0
    0.2386   -0.1584    0.5011 C   0  0  1  0  0  0  0  0  0  0  0  0
    0.9994   -0.8421    0.1091 H   0  0  0  0  0  0  0  0  0  0  0  0
    0.2399    1.0949   -0.3764 C   0  0  0  0  0  0  0  0  0  0  0  0
    1.2456    1.5294   -0.3813 H   0  0  0  0  0  0  0  0  0  0  0  0
   -0.0137    0.8298   -1.4080 H   0  0  0  0  0  0  0  0  0  0  0  0
   -0.6948    2.0615    0.1248 O   0  0  0  0  0  0  0  0  0  0  0  0
   -0.5834    2.9131   -0.3353 H   0  0  0  0  0  0  0  0  0  0  0  0
    0.6660    0.1920    1.9391 C   0  0  0  0  0  0  0  0  0  0  0  0
    1.8550    0.3204    2.2042 O   0  0  0  0  0  0  0  0  0  0  0  0
   -0.2768    0.4974    2.9041 N   0  0  0  0  0  0  0  0  0  0  0  0
   -1.2443    0.5193    2.6002 H   0  0  0  0  0  0  0  0  0  0  0  0
    0.0647    0.9765    4.2367 C   0  0  0  0  0  0  0  0  0  0  0  0
    0.6032    1.9280    4.1750 H   0  0  0  0  0  0  0  0  0  0  0  0
   -0.8432    1.1290    4.8280 H   0  0  0  0  0  0  0  0  0  0  0  0
    0.6957    0.2467    4.7550 H   0  0  0  0  0  0  0  0  0  0  0  0
  1  2  1  0  0  0  0
  2  3  1  0  0  0  0
  2  4  1  0  0  0  0
  2  5  1  0  0  0  0
  5  6  2  0  0  0  0
  5  7  1  0  0  0  0
  7  8  1  0  0  0  0
  7  9  1  0  0  0  0
  9 10  1  0  0  0  0
  9 11  1  0  0  0  0
  9 16  1  0  0  0  0
 11 12  1  0  0  0  0
 11 13  1  0  0  0  0
 11 14  1  0  0  0  0
 14 15  1  0  0  0  0
 16 17  2  0  0  0  0
 16 18  1  0  0  0  0
 18 19  1  0  0  0  0
 18 20  1  0  0  0  0
 20 21  1  0  0  0  0
 20 22  1  0  0  0  0
 20 23  1  0  0  0  0
M  END
$$$$

  -OEChem-01062216093D

 23 22  0     1  0  0  0  0  0999 V2000
   -2.7373   -3.7233    0.8573 H   0  0  0  0  0  0  0  0  0  0  0  0
   -2.7302   -2.6683    0.5693 C   0  0  0  0  0  0  0  0  0  0  0  0
   -3.4290   -2.1242    1.2089 H   0  0  0  0  0  0  0  0  0  0  0  0
   -3.0571   -2.5861   -0.4699 H   0  0  0  0  0  0  0  0  0  0  0  0
   -1.3331   -2.0969    0.7203 C   0  0  0  0  0  0  0  0  0  0  0  0
   -0.4358   -2.7850    1.1733 O   0  0  0  0  0  0  0  0  0  0  0  0
   -1.0812   -0.7869    0.3736 N   0  0  0  0  0  0  0  0  0  0  0  0
   -1.8623   -0.2153    0.0610 H   0  0  0  0  0  0  0  0  0  0  0  0
    0.2349   -0.1316    0.4959 C   0  0  1  0  0  0  0  0  0  0  0  0
    0.9992   -0.8211    0.1220 H   0  0  0  0  0  0  0  0  0  0  0  0
    0.2298    1.0991   -0.4149 C   0  0  0  0  0  0  0  0  0  0  0  0
    1.2313    1.5423   -0.4299 H   0  0  0  0  0  0  0  0  0  0  0  0
   -0.0193    0.8062   -1.4401 H   0  0  0  0  0  0  0  0  0  0  0  0
   -0.7136    2.0698    0.0585 O   0  0  0  0  0  0  0  0  0  0  0  0
   -0.5828    2.9220   -0.3945 H   0  0  0  0  0  0  0  0  0  0  0  0
    0.6645    0.2523    1.9259 C   0  0  0  0  0  0  0  0  0  0  0  0
    1.8165    0.6135    2.1362 O   0  0  0  0  0  0  0  0  0  0  0  0
   -0.2498    0.2764    2.9637 N   0  0  0  0  0  0  0  0  0  0  0  0
   -1.1748   -0.0861    2.7602 H   0  0  0  0  0  0  0  0  0  0  0  0
    0.1061    0.5915    4.3406 C   0  0  0  0  0  0  0  0  0  0  0  0
    0.5705    1.5815    4.4001 H   0  0  0  0  0  0  0  0  0  0  0  0
   -0.7880    0.5928    4.9711 H   0  0  0  0  0  0  0  0  0  0  0  0
    0.8078   -0.1518    4.7334 H   0  0  0  0  0  0  0  0  0  0  0  0
  1  2  1  0  0  0  0
  2  3  1  0  0  0  0
  2  4  1  0  0  0  0
  2  5  1  0  0  0  0
  5  6  2  0  0  0  0
  5  7  1  0  0  0  0
  7  8  1  0  0  0  0
  7  9  1  0  0  0  0
  9 10  1  0  0  0  0
  9 11  1  0  0  0  0
  9 16  1  0  0  0  0
 11 12  1  0  0  0  0
 11 13  1  0  0  0  0
 11 14  1  0  0  0  0
 14 15  1  0  0  0  0
 16 17  2  0  0  0  0
 16 18  1  0  0  0  0
 18 19  1  0  0  0  0
 18 20  1  0  0  0  0
 20 21  1  0  0  0  0
 20 22  1  0  0  0  0
 20 23  1  0  0  0  0
M  END
$$$$

  -OEChem-01062216093D

 23 22  0     1  0  0  0  0  0999 V2000
   -2.7555   -3.7139    0.8343 H   0  0  0  0  0  0  0  0  0  0  0  0
   -2.7408   -2.6611    0.5382 C   0  0  0  0  0  0  0  0  0  0  0  0
   -3.4566   -2.1117    1.1542 H   0  0  0  0  0  0  0  0  0  0  0  0
   -3.0401   -2.5872   -0.5101 H   0  0  0  0  0  0  0  0  0  0  0  0
   -1.3484   -2.0879    0.7216 C   0  0  0  0  0  0  0  0  0  0  0  0
   -0.4685   -2.7612    1.2282 O   0  0  0  0  0  0  0  0  0  0  0  0
   -1.0861   -0.7806    0.3760 N   0  0  0  0  0  0  0  0  0  0  0  0
   -1.8628   -0.2064    0.0565 H   0  0  0  0  0  0  0  0  0  0  0  0
    0.2296   -0.1242    0.5030 C   0  0  1  0  0  0  0  0  0  0  0  0
    0.9953   -0.8143    0.1344 H   0  0  0  0  0  0  0  0  0  0  0  0
    0.2194    1.0989   -0.4198 C   0  0  0  0  0  0  0  0  0  0  0  0
    1.2182    1.5481   -0.4394 H   0  0  0  0  0  0  0  0  0  0  0  0
   -0.0267    0.7953   -1.4424 H   0  0  0  0  0  0  0  0  0  0  0  0
   -0.7314    2.0670    0.0436 O   0  0  0  0  0  0  0  0  0  0  0  0
   -0.5801    2.9272   -0.3871 H   0  0  0  0  0  0  0  0  0  0  0  0
    0.6593    0.2662    1.9335 C   0  0  0  0  0  0  0  0  0  0  0  0
    1.7237    0.8471    2.1136 O   0  0  0  0  0  0  0  0  0  0  0  0
   -0.1568    0.0053    3.0194 N   0  0  0  0  0  0  0  0  0  0  0  0
   -0.9222   -0.6385    2.8462 H   0  0  0  0  0  0  0  0  0  0  0  0
    0.2473    0.2593    4.3959 C   0  0  0  0  0  0  0  0  0  0  0  0
    0.5099    1.3140    4.5305 H   0  0  0  0  0  0  0  0  0  0  0  0
   -0.5726    0.0202    5.0797 H   0  0  0  0  0  0  0  0  0  0  0  0
    1.1132   -0.3567    4.6605 H   0  0  0  0  0  0  0  0  0  0  0  0
  1  2  1  0  0  0  0
  2  3  1  0  0  0  0
  2  4  1  0  0  0  0
  2  5  1  0  0  0  0
  5  6  2  0  0  0  0
  5  7  1  0  0  0  0
  7  8  1  0  0  0  0
  7  9  1  0  0  0  0
  9 10  1  0  0  0  0
  9 11  1  0  0  0  0
  9 16  1  0  0  0  0
 11 12  1  0  0  0  0
 11 13  1  0  0  0  0
 11 14  1  0  0  0  0
 14 15  1  0  0  0  0
 16 17  2  0  0  0  0
 16 18  1  0  0  0  0
 18 19  1  0  0  0  0
 18 20  1  0  0  0  0
 20 21  1  0  0  0  0
 20 22  1  0  0  0  0
 20 23  1  0  0  0  0
M  END
$$$$

  -OEChem-01062216093D

 23 22  0     1  0  0  0  0  0999 V2000
   -2.7606   -3.7120    0.7864 H   0  0  0  0  0  0  0  0  0  0  0  0
   -2.7492   -2.6486    0.5303 C   0  0  0  0  0  0  0  0  0  0  0  0
   -3.4608   -2.1232    1.1718 H   0  0  0  0  0  0  0  0  0  0  0  0
   -3.0562   -2.5358   -0.5122 H   0  0  0  0  0  0  0  0  0  0  0  0
   -1.3571   -2.0793    0.7254 C   0  0  0  0  0  0  0  0  0  0  0  0
   -0.4896   -2.7445    1.2648 O   0  0  0  0  0  0  0  0  0  0  0  0
   -1.0877   -0.7729    0.3840 N   0  0  0  0  0  0  0  0  0  0  0  0
   -1.8641   -0.1944    0.0708 H   0  0  0  0  0  0  0  0  0  0  0  0
    0.2276   -0.1156    0.5096 C   0  0  1  0  0  0  0  0  0  0  0  0
    0.9931   -0.8066    0.1432 H   0  0  0  0  0  0  0  0  0  0  0  0
    0.2118    1.0986   -0.4267 C   0  0  0  0  0  0  0  0  0  0  0  0
    1.2082    1.5525   -0.4510 H   0  0  0  0  0  0  0  0  0  0  0  0
   -0.0323    0.7837   -1.4466 H   0  0  0  0  0  0  0  0  0  0  0  0
   -0.7432    2.0676    0.0259 O   0  0  0  0  0  0  0  0  0  0  0  0
   -0.5764    2.9316   -0.3908 H   0  0  0  0  0  0  0  0  0  0  0  0
    0.6570    0.2713    1.9431 C   0  0  0  0  0  0  0  0  0  0  0  0
    1.5915    1.0442    2.1247 O   0  0  0  0  0  0  0  0  0  0  0  0
    0.0023   -0.2598    3.0397 N   0  0  0  0  0  0  0  0  0  0  0  0
   -0.5537   -1.0890    2.8399 H   0  0  0  0  0  0  0  0  0  0  0  0
    0.4520   -0.0447    4.4085 C   0  0  0  0  0  0  0  0  0  0  0  0
    0.4983    1.0260    4.6339 H   0  0  0  0  0  0  0  0  0  0  0  0
   -0.2436   -0.5132    5.1113 H   0  0  0  0  0  0  0  0  0  0  0  0
    1.4454   -0.4805    4.5579 H   0  0  0  0  0  0  0  0  0  0  0  0
  1  2  1  0  0  0  0
  2  3  1  0  0  0  0
  2  4  1  0  0  0  0
  2  5  1  0  0  0  0
  5  6  2  0  0  0  0
  5  7  1  0  0  0  0
  7  8  1  0  0  0  0
  7  9  1  0  0  0  0
  9 10  1  0  0  0  0
  9 11  1  0  0  0  0
  9 16  1  0  0  0  0
 11 12  1  0  0  0  0
 11 13  1  0  0  0  0
 11 14  1  0  0  0  0
 14 15  1  0  0  0  0
 16 17  2  0  0  0  0
 16 18  1  0  0  0  0
 18 19  1  0  0  0  0
 18 20  1  0  0  0  0
 20 21  1  0  0  0  0
 20 22  1  0  0  0  0
 20 23  1  0  0  0  0
M  END
$$$$

  -OEChem-01062216093D

 23 22  0     1  0  0  0  0  0999 V2000
   -2.7637   -3.7020    0.8043 H   0  0  0  0  0  0  0  0  0  0  0  0
   -2.7511   -2.6393    0.5464 C   0  0  0  0  0  0  0  0  0  0  0  0
   -3.4522   -2.1100    1.1963 H   0  0  0  0  0  0  0  0  0  0  0  0
   -3.0709   -2.5266   -0.4924 H   0  0  0  0  0  0  0  0  0  0  0  0
   -1.3539   -2.0762    0.7238 C   0  0  0  0  0  0  0  0  0  0  0  0
   -0.4776   -2.7516    1.2383 O   0  0  0  0  0  0  0  0  0  0  0  0
   -1.0842   -0.7690    0.3851 N   0  0  0  0  0  0  0  0  0  0  0  0
   -1.8659   -0.1838    0.0987 H   0  0  0  0  0  0  0  0  0  0  0  0
    0.2294   -0.1087    0.5119 C   0  0  1  0  0  0  0  0  0  0  0  0
    0.9976   -0.7982    0.1482 H   0  0  0  0  0  0  0  0  0  0  0  0
    0.2082    1.0982   -0.4347 C   0  0  0  0  0  0  0  0  0  0  0  0
    1.2026    1.5569   -0.4600 H   0  0  0  0  0  0  0  0  0  0  0  0
   -0.0316    0.7748   -1.4528 H   0  0  0  0  0  0  0  0  0  0  0  0
   -0.7530    2.0655    0.0087 O   0  0  0  0  0  0  0  0  0  0  0  0
   -0.5562    2.9406   -0.3698 H   0  0  0  0  0  0  0  0  0  0  0  0
    0.6523    0.2752    1.9496 C   0  0  0  0  0  0  0  0  0  0  0  0
    1.4313    1.1996    2.1563 O   0  0  0  0  0  0  0  0  0  0  0  0
    0.2156   -0.4802    3.0224 N   0  0  0  0  0  0  0  0  0  0  0  0
   -0.1914   -1.3825    2.7716 H   0  0  0  0  0  0  0  0  0  0  0  0
    0.7137   -0.2966    4.3791 C   0  0  0  0  0  0  0  0  0  0  0  0
    0.5402    0.7309    4.7160 H   0  0  0  0  0  0  0  0  0  0  0  0
    0.1970   -0.9747    5.0650 H   0  0  0  0  0  0  0  0  0  0  0  0
    1.7874   -0.5063    4.4245 H   0  0  0  0  0  0  0  0  0  0  0  0
  1  2  1  0  0  0  0
  2  3  1  0  0  0  0
  2  4  1  0  0  0  0
  2  5  1  0  0  0  0
  5  6  2  0  0  0  0
  5  7  1  0  0  0  0
  7  8  1  0  0  0  0
  7  9  1  0  0  0  0
  9 10  1  0  0  0  0
  9 11  1  0  0  0  0
  9 16  1  0  0  0  0
 11 12  1  0  0  0  0
 11 13  1  0  0  0  0
 11 14  1  0  0  0  0
 14 15  1  0  0  0  0
 16 17  2  0  0  0  0
 16 18  1  0  0  0  0
 18 19  1  0  0  0  0
 18 20  1  0  0  0  0
 20 21  1  0  0  0  0
 20 22  1  0  0  0  0
 20 23  1  0  0  0  0
M  END
$$$$

  -OEChem-01062216093D

 23 22  0     1  0  0  0  0  0999 V2000
   -2.7496   -3.6948    0.8515 H   0  0  0  0  0  0  0  0  0  0  0  0
   -2.7393   -2.6334    0.5878 C   0  0  0  0  0  0  0  0  0  0  0  0
   -3.4142   -2.0961    1.2587 H   0  0  0  0  0  0  0  0  0  0  0  0
   -3.0944   -2.5237   -0.4396 H   0  0  0  0  0  0  0  0  0  0  0  0
   -1.3338   -2.0774    0.7131 C   0  0  0  0  0  0  0  0  0  0  0  0
   -0.4366   -2.7685    1.1699 O   0  0  0  0  0  0  0  0  0  0  0  0
   -1.0745   -0.7670    0.3759 N   0  0  0  0  0  0  0  0  0  0  0  0
   -1.8666   -0.1746    0.1351 H   0  0  0  0  0  0  0  0  0  0  0  0
    0.2358   -0.1030    0.5045 C   0  0  1  0  0  0  0  0  0  0  0  0
    1.0083   -0.7877    0.1412 H   0  0  0  0  0  0  0  0  0  0  0  0
    0.2086    1.1011   -0.4464 C   0  0  0  0  0  0  0  0  0  0  0  0
    1.2010    1.5642   -0.4687 H   0  0  0  0  0  0  0  0  0  0  0  0
   -0.0262    0.7744   -1.4648 H   0  0  0  0  0  0  0  0  0  0  0  0
   -0.7581    2.0660   -0.0090 O   0  0  0  0  0  0  0  0  0  0  0  0
   -0.5194    2.9556   -0.3244 H   0  0  0  0  0  0  0  0  0  0  0  0
    0.6481    0.2752    1.9473 C   0  0  0  0  0  0  0  0  0  0  0  0
    1.2480    1.3152    2.1975 O   0  0  0  0  0  0  0  0  0  0  0  0
    0.4730   -0.6456    2.9634 N   0  0  0  0  0  0  0  0  0  0  0  0
    0.1619   -1.5739    2.6681 H   0  0  0  0  0  0  0  0  0  0  0  0
    1.0038   -0.4744    4.3091 C   0  0  0  0  0  0  0  0  0  0  0  0
    0.6243    0.4503    4.7562 H   0  0  0  0  0  0  0  0  0  0  0  0
    0.6998   -1.3128    4.9430 H   0  0  0  0  0  0  0  0  0  0  0  0
    2.0977   -0.4333    4.2868 H   0  0  0  0  0  0  0  0  0  0  0  0
  1  2  1  0  0  0  0
  2  3  1  0  0  0  0
  2  4  1  0  0  0  0
  2  5  1  0  0  0  0
  5  6  2  0  0  0  0
  5  7  1  0  0  0  0
  7  8  1  0  0  0  0
  7  9  1  0  0  0  0
  9 10  1  0  0  0  0
  9 11  1  0  0  0  0
  9 16  1  0  0  0  0
 11 12  1  0  0  0  0
 11 13  1  0  0  0  0
 11 14  1  0  0  0  0
 14 15  1  0  0  0  0
 16 17  2  0  0  0  0
 16 18  1  0  0  0  0
 18 19  1  0  0  0  0
 18 20  1  0  0  0  0
 20 21  1  0  0  0  0
 20 22  1  0  0  0  0
 20 23  1  0  0  0  0
M  END
$$$$

  -OEChem-01062216093D

 23 22  0     1  0  0  0  0  0999 V2000
   -2.7472   -3.6356    1.0049 H   0  0  0  0  0  0  0  0  0  0  0  0
   -2.7287   -2.5946    0.6704 C   0  0  0  0  0  0  0  0  0  0  0  0
   -3.3840   -2.0056    1.3167 H   0  0  0  0  0  0  0  0  0  0  0  0
   -3.1021   -2.5486   -0.3556 H   0  0  0  0  0  0  0  0  0  0  0  0
   -1.3140   -2.0512    0.7316 C   0  0  0  0  0  0  0  0  0  0  0  0
   -0.4015   -2.7490    1.1482 O   0  0  0  0  0  0  0  0  0  0  0  0
   -1.0527   -0.7529    0.3494 N   0  0  0  0  0  0  0  0  0  0  0  0
   -1.8425   -0.1664    0.0858 H   0  0  0  0  0  0  0  0  0  0  0  0
    0.2760   -0.1176    0.3873 C   0  0  1  0  0  0  0  0  0  0  0  0
    1.0173   -0.8191   -0.0088 H   0  0  0  0  0  0  0  0  0  0  0  0
    0.2309    1.0891   -0.5612 C   0  0  0  0  0  0  0  0  0  0  0  0
    1.2318    1.5233   -0.6566 H   0  0  0  0  0  0  0  0  0  0  0  0
   -0.0882    0.7678   -1.5582 H   0  0  0  0  0  0  0  0  0  0  0  0
   -0.6745    2.0777   -0.0592 O   0  0  0  0  0  0  0  0  0  0  0  0
   -0.3383    2.3940    0.8075 H   0  0  0  0  0  0  0  0  0  0  0  0
    0.7370    0.2631    1.8142 C   0  0  0  0  0  0  0  0  0  0  0  0
    0.9491    1.4306    2.1300 O   0  0  0  0  0  0  0  0  0  0  0  0
    0.8716   -0.7221    2.7719 N   0  0  0  0  0  0  0  0  0  0  0  0
    0.6170   -1.6711    2.4838 H   0  0  0  0  0  0  0  0  0  0  0  0
    1.2417   -0.4707    4.1579 C   0  0  0  0  0  0  0  0  0  0  0  0
    0.5226    0.2064    4.6305 H   0  0  0  0  0  0  0  0  0  0  0  0
    1.2544   -1.4091    4.7206 H   0  0  0  0  0  0  0  0  0  0  0  0
    2.2388   -0.0217    4.2118 H   0  0  0  0  0  0  0  0  0  0  0  0
  1  2  1  0  0  0  0
  2  3  1  0  0  0  0
  2  4  1  0  0  0  0
  2  5  1  0  0  0  0
  5  6  2  0  0  0  0
  5  7  1  0  0  0  0
  7  8  1  0  0  0  0
  7  9  1  0  0  0  0
  9 10  1  0  0  0  0
  9 11  1  0  0  0  0
  9 16  1  0  0  0  0
 11 12  1  0  0  0  0
 11 13  1  0  0  0  0
 11 14  1  0  0  0  0
 14 15  1  0  0  0  0
 16 17  2  0  0  0  0
 16 18  1  0  0  0  0
 18 19  1  0  0  0  0
 18 20  1  0  0  0  0
 20 21  1  0  0  0  0
 20 22  1  0  0  0  0
 20 23  1  0  0  0  0
M  END
$$$$

  -OEChem-01062216093D

 23 22  0     1  0  0  0  0  0999 V2000
   -2.7001   -3.6270    1.0502 H   0  0  0  0  0  0  0  0  0  0  0  0
   -2.6997   -2.5810    0.7309 C   0  0  0  0  0  0  0  0  0  0  0  0
   -3.3343   -2.0055    1.4093 H   0  0  0  0  0  0  0  0  0  0  0  0
   -3.1105   -2.5219   -0.2800 H   0  0  0  0  0  0  0  0  0  0  0  0
   -1.2868   -2.0298    0.7492 C   0  0  0  0  0  0  0  0  0  0  0  0
   -0.3582   -2.7184    1.1471 O   0  0  0  0  0  0  0  0  0  0  0  0
   -1.0407   -0.7337    0.3496 N   0  0  0  0  0  0  0  0  0  0  0  0
   -1.8357   -0.1464    0.1038 H   0  0  0  0  0  0  0  0  0  0  0  0
    0.2899   -0.1060    0.3680 C   0  0  1  0  0  0  0  0  0  0  0  0
    1.0258   -0.8107   -0.0323 H   0  0  0  0  0  0  0  0  0  0  0  0
    0.2424    1.0952   -0.5876 C   0  0  0  0  0  0  0  0  0  0  0  0
    1.2456    1.5225   -0.6898 H   0  0  0  0  0  0  0  0  0  0  0  0
   -0.0840    0.7707   -1.5810 H   0  0  0  0  0  0  0  0  0  0  0  0
   -0.6511    2.0951   -0.0867 O   0  0  0  0  0  0  0  0  0  0  0  0
   -0.3404    2.3694    0.8051 H   0  0  0  0  0  0  0  0  0  0  0  0
    0.7541    0.2771    1.7917 C   0  0  0  0  0  0  0  0  0  0  0  0
    0.7654    1.4436    2.1761 O   0  0  0  0  0  0  0  0  0  0  0  0
    1.1798   -0.7211    2.6452 N   0  0  0  0  0  0  0  0  0  0  0  0
    0.9734   -1.6766    2.3410 H   0  0  0  0  0  0  0  0  0  0  0  0
    1.5316   -0.4903    4.0398 C   0  0  0  0  0  0  0  0  0  0  0  0
    0.6586   -0.1449    4.6031 H   0  0  0  0  0  0  0  0  0  0  0  0
    1.8951   -1.4170    4.4943 H   0  0  0  0  0  0  0  0  0  0  0  0
    2.3224    0.2632    4.1175 H   0  0  0  0  0  0  0  0  0  0  0  0
  1  2  1  0  0  0  0
  2  3  1  0  0  0  0
  2  4  1  0  0  0  0
  2  5  1  0  0  0  0
  5  6  2  0  0  0  0
  5  7  1  0  0  0  0
  7  8  1  0  0  0  0
  7  9  1  0  0  0  0
  9 10  1  0  0  0  0
  9 11  1  0  0  0  0
  9 16  1  0  0  0  0
 11 12  1  0  0  0  0
 11 13  1  0  0  0  0
 11 14  1  0  0  0  0
 14 15  1  0  0  0  0
 16 17  2  0  0  0  0
 16 18  1  0  0  0  0
 18 19  1  0  0  0  0
 18 20  1  0  0  0  0
 20 21  1  0  0  0  0
 20 22  1  0  0  0  0
 20 23  1  0  0  0  0
M  END
$$$$

  -OEChem-01062216093D

 23 22  0     1  0  0  0  0  0999 V2000
   -2.6225   -3.6737    1.0306 H   0  0  0  0  0  0  0  0  0  0  0  0
   -2.6563   -2.6177    0.7484 C   0  0  0  0  0  0  0  0  0  0  0  0
   -3.2692   -2.0783    1.4747 H   0  0  0  0  0  0  0  0  0  0  0  0
   -3.1141   -2.5319   -0.2401 H   0  0  0  0  0  0  0  0  0  0  0  0
   -1.2542   -2.0395    0.7217 C   0  0  0  0  0  0  0  0  0  0  0  0
   -0.2935   -2.7301    1.0316 O   0  0  0  0  0  0  0  0  0  0  0  0
   -1.0539   -0.7176    0.3865 N   0  0  0  0  0  0  0  0  0  0  0  0
   -1.8700   -0.1158    0.2950 H   0  0  0  0  0  0  0  0  0  0  0  0
    0.2579   -0.0611    0.4651 C   0  0  1  0  0  0  0  0  0  0  0  0
    1.0145   -0.7419    0.0625 H   0  0  0  0  0  0  0  0  0  0  0  0
    0.2192    1.1389   -0.4937 C   0  0  0  0  0  0  0  0  0  0  0  0
    1.2186    1.5842   -0.5349 H   0  0  0  0  0  0  0  0  0  0  0  0
   -0.0365    0.8032   -1.5040 H   0  0  0  0  0  0  0  0  0  0  0  0
   -0.7166    2.1357   -0.0651 O   0  0  0  0  0  0  0  0  0  0  0  0
   -0.4850    3.0087   -0.4259 H   0  0  0  0  0  0  0  0  0  0  0  0
    0.7001    0.2696    1.9092 C   0  0  0  0  0  0  0  0  0  0  0  0
    0.5712    1.3742    2.4227 O   0  0  0  0  0  0  0  0  0  0  0  0
    1.4225   -0.6933    2.5891 N   0  0  0  0  0  0  0  0  0  0  0  0
    1.3365   -1.6411    2.2182 H   0  0  0  0  0  0  0  0  0  0  0  0
    1.8791   -0.5245    3.9628 C   0  0  0  0  0  0  0  0  0  0  0  0
    1.0273   -0.3808    4.6356 H   0  0  0  0  0  0  0  0  0  0  0  0
    2.4330   -1.4107    4.2870 H   0  0  0  0  0  0  0  0  0  0  0  0
    2.5424    0.3432    4.0428 H   0  0  0  0  0  0  0  0  0  0  0  0
  1  2  1  0  0  0  0
  2  3  1  0  0  0  0
  2  4  1  0  0  0  0
  2  5  1  0  0  0  0
  5  6  2  0  0  0  0
  5  7  1  0  0  0  0
  7  8  1  0  0  0  0
  7  9  1  0  0  0  0
  9 10  1  0  0  0  0
  9 11  1  0  0  0  0
  9 16  1  0  0  0  0
 11 12  1  0  0  0  0
 11 13  1  0  0  0  0
 11 14  1  0  0  0  0
 14 15  1  0  0  0  0
 16 17  2  0  0  0  0
 16 18  1  0  0  0  0
 18 19  1  0  0  0  0
 18 20  1  0  0  0  0
 20 21  1  0  0  0  0
 20 22  1  0  0  0  0
 20 23  1  0  0  0  0
M  END
$$$$

  -OEChem-01062216093D

 23 22  0     1  0  0  0  0  0999 V2000
   -2.5756   -3.6489    1.1240 H   0  0  0  0  0  0  0  0  0  0  0  0
   -2.6241   -2.5948    0.8369 C   0  0  0  0  0  0  0  0  0  0  0  0
   -3.1750   -2.0455    1.6043 H   0  0  0  0  0  0  0  0  0  0  0  0
   -3.1559   -2.5124   -0.1140 H   0  0  0  0  0  0  0  0  0  0  0  0
   -1.2246   -2.0269    0.6977 C   0  0  0  0  0  0  0  0  0  0  0  0
   -0.2480   -2.7324    0.9068 O   0  0  0  0  0  0  0  0  0  0  0  0
   -1.0440   -0.7022    0.3623 N   0  0  0  0  0  0  0  0  0  0  0  0
   -1.8609   -0.0952    0.3898 H   0  0  0  0  0  0  0  0  0  0  0  0
    0.2674   -0.0448    0.4286 C   0  0  1  0  0  0  0  0  0  0  0  0
    1.0175   -0.7275    0.0175 H   0  0  0  0  0  0  0  0  0  0  0  0
    0.2489    1.1662   -0.5163 C   0  0  0  0  0  0  0  0  0  0  0  0
    1.2557    1.5942   -0.5580 H   0  0  0  0  0  0  0  0  0  0  0  0
   -0.0161    0.8406   -1.5276 H   0  0  0  0  0  0  0  0  0  0  0  0
   -0.6679    2.1779   -0.0846 O   0  0  0  0  0  0  0  0  0  0  0  0
   -0.5261    3.0102   -0.5672 H   0  0  0  0  0  0  0  0  0  0  0  0
    0.7128    0.2753    1.8732 C   0  0  0  0  0  0  0  0  0  0  0  0
    0.2227    1.1820    2.5349 O   0  0  0  0  0  0  0  0  0  0  0  0
    1.6915   -0.5139    2.4505 N   0  0  0  0  0  0  0  0  0  0  0  0
    1.8673   -1.4021    1.9840 H   0  0  0  0  0  0  0  0  0  0  0  0
    2.0835   -0.3852    3.8487 C   0  0  0  0  0  0  0  0  0  0  0  0
    1.2387   -0.6154    4.5062 H   0  0  0  0  0  0  0  0  0  0  0  0
    2.9006   -1.0763    4.0764 H   0  0  0  0  0  0  0  0  0  0  0  0
    2.4270    0.6332    4.0592 H   0  0  0  0  0  0  0  0  0  0  0  0
  1  2  1  0  0  0  0
  2  3  1  0  0  0  0
  2  4  1  0  0  0  0
  2  5  1  0  0  0  0
  5  6  2  0  0  0  0
  5  7  1  0  0  0  0
  7  8  1  0  0  0  0
  7  9  1  0  0  0  0
  9 10  1  0  0  0  0
  9 11  1  0  0  0  0
  9 16  1  0  0  0  0
 11 12  1  0  0  0  0
 11 13  1  0  0  0  0
 11 14  1  0  0  0  0
 14 15  1  0  0  0  0
 16 17  2  0  0  0  0
 16 18  1  0  0  0  0
 18 19  1  0  0  0  0
 18 20  1  0  0  0  0
 20 21  1  0  0  0  0
 20 22  1  0  0  0  0
 20 23  1  0  0  0  0
M  END
$$$$

  -OEChem-01062216093D

 23 22  0     1  0  0  0  0  0999 V2000
   -2.5449   -3.6261    1.1945 H   0  0  0  0  0  0  0  0  0  0  0  0
   -2.5981   -2.5719    0.9087 C   0  0  0  0  0  0  0  0  0  0  0  0
   -3.0862   -2.0137    1.7114 H   0  0  0  0  0  0  0  0  0  0  0  0
   -3.1936   -2.4827   -0.0029 H   0  0  0  0  0  0  0  0  0  0  0  0
   -1.2038   -2.0237    0.6724 C   0  0  0  0  0  0  0  0  0  0  0  0
   -0.2268   -2.7457    0.8075 O   0  0  0  0  0  0  0  0  0  0  0  0
   -1.0331   -0.7014    0.3225 N   0  0  0  0  0  0  0  0  0  0  0  0
   -1.8432   -0.0948    0.4325 H   0  0  0  0  0  0  0  0  0  0  0  0
    0.2768   -0.0399    0.3886 C   0  0  1  0  0  0  0  0  0  0  0  0
    1.0288   -0.7232   -0.0172 H   0  0  0  0  0  0  0  0  0  0  0  0
    0.2681    1.1819   -0.5401 C   0  0  0  0  0  0  0  0  0  0  0  0
    1.2769    1.6058   -0.5797 H   0  0  0  0  0  0  0  0  0  0  0  0
   -0.0018    0.8694   -1.5542 H   0  0  0  0  0  0  0  0  0  0  0  0
   -0.6443    2.1895   -0.0911 O   0  0  0  0  0  0  0  0  0  0  0  0
   -0.5628    3.0008   -0.6211 H   0  0  0  0  0  0  0  0  0  0  0  0
    0.7058    0.2929    1.8341 C   0  0  0  0  0  0  0  0  0  0  0  0
   -0.0173    0.9319    2.5899 O   0  0  0  0  0  0  0  0  0  0  0  0
    1.8745   -0.2526    2.3361 N   0  0  0  0  0  0  0  0  0  0  0  0
    2.3053   -0.9812    1.7731 H   0  0  0  0  0  0  0  0  0  0  0  0
    2.2391   -0.1688    3.7452 C   0  0  0  0  0  0  0  0  0  0  0  0
    1.4968   -0.6840    4.3639 H   0  0  0  0  0  0  0  0  0  0  0  0
    3.2146   -0.6359    3.9111 H   0  0  0  0  0  0  0  0  0  0  0  0
    2.3001    0.8768    4.0652 H   0  0  0  0  0  0  0  0  0  0  0  0
  1  2  1  0  0  0  0
  2  3  1  0  0  0  0
  2  4  1  0  0  0  0
  2  5  1  0  0  0  0
  5  6  2  0  0  0  0
  5  7  1  0  0  0  0
  7  8  1  0  0  0  0
  7  9  1  0  0  0  0
  9 10  1  0  0  0  0
  9 11  1  0  0  0  0
  9 16  1  0  0  0  0
 11 12  1  0  0  0  0
 11 13  1  0  0  0  0
 11 14  1  0  0  0  0
 14 15  1  0  0  0  0
 16 17  2  0  0  0  0
 16 18  1  0  0  0  0
 18 19  1  0  0  0  0
 18 20  1  0  0  0  0
 20 21  1  0  0  0  0
 20 22  1  0  0  0  0
 20 23  1  0  0  0  0
M  END
$$$$

  -OEChem-01062216093D

 23 22  0     1  0  0  0  0  0999 V2000
   -2.5505   -3.6193    1.1989 H   0  0  0  0  0  0  0  0  0  0  0  0
   -2.5985   -2.5607    0.9293 C   0  0  0  0  0  0  0  0  0  0  0  0
   -3.0482   -2.0063    1.7567 H   0  0  0  0  0  0  0  0  0  0  0  0
   -3.2256   -2.4506    0.0415 H   0  0  0  0  0  0  0  0  0  0  0  0
   -1.2059   -2.0288    0.6498 C   0  0  0  0  0  0  0  0  0  0  0  0
   -0.2348   -2.7636    0.7520 O   0  0  0  0  0  0  0  0  0  0  0  0
   -1.0338   -0.7095    0.2892 N   0  0  0  0  0  0  0  0  0  0  0  0
   -1.8375   -0.1022    0.4350 H   0  0  0  0  0  0  0  0  0  0  0  0
    0.2772   -0.0499    0.3696 C   0  0  1  0  0  0  0  0  0  0  0  0
    1.0346   -0.7340   -0.0249 H   0  0  0  0  0  0  0  0  0  0  0  0
    0.2767    1.1803   -0.5455 C   0  0  0  0  0  0  0  0  0  0  0  0
    1.2858    1.6040   -0.5781 H   0  0  0  0  0  0  0  0  0  0  0  0
    0.0082    0.8789   -1.5632 H   0  0  0  0  0  0  0  0  0  0  0  0
   -0.6383    2.1799   -0.0840 O   0  0  0  0  0  0  0  0  0  0  0  0
   -0.5846    2.9845   -0.6279 H   0  0  0  0  0  0  0  0  0  0  0  0
    0.6857    0.2959    1.8177 C   0  0  0  0  0  0  0  0  0  0  0  0
   -0.1397    0.6985    2.6308 O   0  0  0  0  0  0  0  0  0  0  0  0
    1.9723    0.0271    2.2524 N   0  0  0  0  0  0  0  0  0  0  0  0
    2.5681   -0.4988    1.6201 H   0  0  0  0  0  0  0  0  0  0  0  0
    2.3705    0.1334    3.6510 C   0  0  0  0  0  0  0  0  0  0  0  0
    1.8111   -0.5816    4.2635 H   0  0  0  0  0  0  0  0  0  0  0  0
    3.4387   -0.0789    3.7570 H   0  0  0  0  0  0  0  0  0  0  0  0
    2.1821    1.1441    4.0284 H   0  0  0  0  0  0  0  0  0  0  0  0
  1  2  1  0  0  0  0
  2  3  1  0  0  0  0
  2  4  1  0  0  0  0
  2  5  1  0  0  0  0
  5  6  2  0  0  0  0
  5  7  1  0  0  0  0
  7  8  1  0  0  0  0
  7  9  1  0  0  0  0
  9 10  1  0  0  0  0
  9 11  1  0  0  0  0
  9 16  1  0  0  0  0
 11 12  1  0  0  0  0
 11 13  1  0  0  0  0
 11 14  1  0  0  0  0
 14 15  1  0  0  0  0
 16 17  2  0  0  0  0
 16 18  1  0  0  0  0
 18 19  1  0  0  0  0
 18 20  1  0  0  0  0
 20 21  1  0  0  0  0
 20 22  1  0  0  0  0
 20 23  1  0  0  0  0
M  END
$$$$

  -OEChem-01062216093D

 23 22  0     1  0  0  0  0  0999 V2000
   -2.5664   -3.6185    1.1838 H   0  0  0  0  0  0  0  0  0  0  0  0
   -2.6072   -2.5556    0.9302 C   0  0  0  0  0  0  0  0  0  0  0  0
   -3.0296   -2.0077    1.7762 H   0  0  0  0  0  0  0  0  0  0  0  0
   -3.2538   -2.4245    0.0593 H   0  0  0  0  0  0  0  0  0  0  0  0
   -1.2148   -2.0374    0.6256 C   0  0  0  0  0  0  0  0  0  0  0  0
   -0.2506   -2.7842    0.7015 O   0  0  0  0  0  0  0  0  0  0  0  0
   -1.0370   -0.7195    0.2620 N   0  0  0  0  0  0  0  0  0  0  0  0
   -1.8364   -0.1113    0.4251 H   0  0  0  0  0  0  0  0  0  0  0  0
    0.2761   -0.0654    0.3638 C   0  0  1  0  0  0  0  0  0  0  0  0
    1.0390   -0.7496   -0.0201 H   0  0  0  0  0  0  0  0  0  0  0  0
    0.2826    1.1725   -0.5395 C   0  0  0  0  0  0  0  0  0  0  0  0
    1.2909    1.5985   -0.5634 H   0  0  0  0  0  0  0  0  0  0  0  0
    0.0190    0.8810   -1.5617 H   0  0  0  0  0  0  0  0  0  0  0  0
   -0.6382    2.1632   -0.0693 O   0  0  0  0  0  0  0  0  0  0  0  0
   -0.6075    2.9629   -0.6225 H   0  0  0  0  0  0  0  0  0  0  0  0
    0.6666    0.2869    1.8158 C   0  0  0  0  0  0  0  0  0  0  0  0
   -0.1902    0.4731    2.6744 O   0  0  0  0  0  0  0  0  0  0  0  0
    2.0002    0.3109    2.1873 N   0  0  0  0  0  0  0  0  0  0  0  0
    2.6799    0.0051    1.4982 H   0  0  0  0  0  0  0  0  0  0  0  0
    2.4347    0.4844    3.5682 C   0  0  0  0  0  0  0  0  0  0  0  0
    2.0848   -0.3488    4.1868 H   0  0  0  0  0  0  0  0  0  0  0  0
    3.5271    0.5200    3.6197 H   0  0  0  0  0  0  0  0  0  0  0  0
    2.0409    1.4195    3.9805 H   0  0  0  0  0  0  0  0  0  0  0  0
  1  2  1  0  0  0  0
  2  3  1  0  0  0  0
  2  4  1  0  0  0  0
  2  5  1  0  0  0  0
  5  6  2  0  0  0  0
  5  7  1  0  0  0  0
  7  8  1  0  0  0  0
  7  9  1  0  0  0  0
  9 10  1  0  0  0  0
  9 11  1  0  0  0  0
  9 16  1  0  0  0  0
 11 12  1  0  0  0  0
 11 13  1  0  0  0  0
 11 14  1  0  0  0  0
 14 15  1  0  0  0  0
 16 17  2  0  0  0  0
 16 18  1  0  0  0  0
 18 19  1  0  0  0  0
 18 20  1  0  0  0  0
 20 21  1  0  0  0  0
 20 22  1  0  0  0  0
 20 23  1  0  0  0  0
M  END
$$$$

  -OEChem-01062216093D

 23 22  0     1  0  0  0  0  0999 V2000
   -2.5772   -3.6191    1.1765 H   0  0  0  0  0  0  0  0  0  0  0  0
   -2.6146   -2.5554    0.9260 C   0  0  0  0  0  0  0  0  0  0  0  0
   -3.0201   -2.0070    1.7800 H   0  0  0  0  0  0  0  0  0  0  0  0
   -3.2733   -2.4178    0.0653 H   0  0  0  0  0  0  0  0  0  0  0  0
   -1.2231   -2.0461    0.6029 C   0  0  0  0  0  0  0  0  0  0  0  0
   -0.2657   -2.8039    0.6516 O   0  0  0  0  0  0  0  0  0  0  0  0
   -1.0408   -0.7273    0.2430 N   0  0  0  0  0  0  0  0  0  0  0  0
   -1.8374   -0.1193    0.4184 H   0  0  0  0  0  0  0  0  0  0  0  0
    0.2752   -0.0807    0.3640 C   0  0  1  0  0  0  0  0  0  0  0  0
    1.0422   -0.7635   -0.0143 H   0  0  0  0  0  0  0  0  0  0  0  0
    0.2864    1.1650   -0.5287 C   0  0  0  0  0  0  0  0  0  0  0  0
    1.2941    1.5930   -0.5471 H   0  0  0  0  0  0  0  0  0  0  0  0
    0.0256    0.8823   -1.5540 H   0  0  0  0  0  0  0  0  0  0  0  0
   -0.6384    2.1487   -0.0505 O   0  0  0  0  0  0  0  0  0  0  0  0
   -0.6252    2.9442   -0.6109 H   0  0  0  0  0  0  0  0  0  0  0  0
    0.6545    0.2688    1.8205 C   0  0  0  0  0  0  0  0  0  0  0  0
   -0.1826    0.2457    2.7179 O   0  0  0  0  0  0  0  0  0  0  0  0
    1.9637    0.5884    2.1388 N   0  0  0  0  0  0  0  0  0  0  0  0
    2.6569    0.5175    1.4010 H   0  0  0  0  0  0  0  0  0  0  0  0
    2.4109    0.8481    3.5018 C   0  0  0  0  0  0  0  0  0  0  0  0
    2.2553   -0.0353    4.1301 H   0  0  0  0  0  0  0  0  0  0  0  0
    3.4766    1.0959    3.5097 H   0  0  0  0  0  0  0  0  0  0  0  0
    1.8582    1.6895    3.9328 H   0  0  0  0  0  0  0  0  0  0  0  0
  1  2  1  0  0  0  0
  2  3  1  0  0  0  0
  2  4  1  0  0  0  0
  2  5  1  0  0  0  0
  5  6  2  0  0  0  0
  5  7  1  0  0  0  0
  7  8  1  0  0  0  0
  7  9  1  0  0  0  0
  9 10  1  0  0  0  0
  9 11  1  0  0  0  0
  9 16  1  0  0  0  0
 11 12  1  0  0  0  0
 11 13  1  0  0  0  0
 11 14  1  0  0  0  0
 14 15  1  0  0  0  0
 16 17  2  0  0  0  0
 16 18  1  0  0  0  0
 18 19  1  0  0  0  0
 18 20  1  0  0  0  0
 20 21  1  0  0  0  0
 20 22  1  0  0  0  0
 20 23  1  0  0  0  0
M  END
$$$$

  -OEChem-01062216093D

 23 22  0     1  0  0  0  0  0999 V2000
   -2.5564   -3.6300    1.1448 H   0  0  0  0  0  0  0  0  0  0  0  0
   -2.5931   -2.5543    0.9516 C   0  0  0  0  0  0  0  0  0  0  0  0
   -2.9097   -2.0442    1.8648 H   0  0  0  0  0  0  0  0  0  0  0  0
   -3.3214   -2.3616    0.1606 H   0  0  0  0  0  0  0  0  0  0  0  0
   -1.2242   -2.0532    0.5329 C   0  0  0  0  0  0  0  0  0  0  0  0
   -0.2885   -2.8323    0.4274 O   0  0  0  0  0  0  0  0  0  0  0  0
   -1.0425   -0.7249    0.2042 N   0  0  0  0  0  0  0  0  0  0  0  0
   -1.8251   -0.1258    0.4545 H   0  0  0  0  0  0  0  0  0  0  0  0
    0.2797   -0.0962    0.3646 C   0  0  1  0  0  0  0  0  0  0  0  0
    0.9988   -0.6526   -0.2448 H   0  0  0  0  0  0  0  0  0  0  0  0
    0.1868    1.3263   -0.2000 C   0  0  0  0  0  0  0  0  0  0  0  0
    1.1805    1.7853   -0.2129 H   0  0  0  0  0  0  0  0  0  0  0  0
   -0.1727    1.2865   -1.2337 H   0  0  0  0  0  0  0  0  0  0  0  0
   -0.7005    2.1294    0.5872 O   0  0  0  0  0  0  0  0  0  0  0  0
   -0.7503    3.0385    0.2427 H   0  0  0  0  0  0  0  0  0  0  0  0
    0.8319   -0.0985    1.8128 C   0  0  0  0  0  0  0  0  0  0  0  0
    0.1577   -0.5016    2.7556 O   0  0  0  0  0  0  0  0  0  0  0  0
    2.0685    0.4627    2.0876 N   0  0  0  0  0  0  0  0  0  0  0  0
    2.6237    0.7881    1.3036 H   0  0  0  0  0  0  0  0  0  0  0  0
    2.6355    0.5294    3.4292 C   0  0  0  0  0  0  0  0  0  0  0  0
    2.7553   -0.4766    3.8451 H   0  0  0  0  0  0  0  0  0  0  0  0
    3.6174    1.0114    3.4017 H   0  0  0  0  0  0  0  0  0  0  0  0
    1.9847    1.1096    4.0918 H   0  0  0  0  0  0  0  0  0  0  0  0
  1  2  1  0  0  0  0
  2  3  1  0  0  0  0
  2  4  1  0  0  0  0
  2  5  1  0  0  0  0
  5  6  2  0  0  0  0
  5  7  1  0  0  0  0
  7  8  1  0  0  0  0
  7  9  1  0  0  0  0
  9 10  1  0  0  0  0
  9 11  1  0  0  0  0
  9 16  1  0  0  0  0
 11 12  1  0  0  0  0
 11 13  1  0  0  0  0
 11 14  1  0  0  0  0
 14 15  1  0  0  0  0
 16 17  2  0  0  0  0
 16 18  1  0  0  0  0
 18 19  1  0  0  0  0
 18 20  1  0  0  0  0
 20 21  1  0  0  0  0
 20 22  1  0  0  0  0
 20 23  1  0  0  0  0
M  END
$$$$

  -OEChem-01062216093D

 23 22  0     1  0  0  0  0  0999 V2000
   -2.5590   -3.6196    1.1607 H   0  0  0  0  0  0  0  0  0  0  0  0
   -2.5900   -2.5435    0.9688 C   0  0  0  0  0  0  0  0  0  0  0  0
   -2.8757   -2.0311    1.8907 H   0  0  0  0  0  0  0  0  0  0  0  0
   -3.3377   -2.3422    0.1982 H   0  0  0  0  0  0  0  0  0  0  0  0
   -1.2277   -2.0570    0.5134 C   0  0  0  0  0  0  0  0  0  0  0  0
   -0.3124   -2.8499    0.3503 O   0  0  0  0  0  0  0  0  0  0  0  0
   -1.0362   -0.7266    0.1984 N   0  0  0  0  0  0  0  0  0  0  0  0
   -1.8150   -0.1261    0.4558 H   0  0  0  0  0  0  0  0  0  0  0  0
    0.2897   -0.1045    0.3623 C   0  0  1  0  0  0  0  0  0  0  0  0
    1.0063   -0.6598   -0.2509 H   0  0  0  0  0  0  0  0  0  0  0  0
    0.1921    1.3175   -0.2056 C   0  0  0  0  0  0  0  0  0  0  0  0
    1.1832    1.7814   -0.2287 H   0  0  0  0  0  0  0  0  0  0  0  0
   -0.1732    1.2728   -1.2371 H   0  0  0  0  0  0  0  0  0  0  0  0
   -0.6972    2.1178    0.5829 O   0  0  0  0  0  0  0  0  0  0  0  0
   -0.7762    3.0172    0.2184 H   0  0  0  0  0  0  0  0  0  0  0  0
    0.8537   -0.1170    1.8097 C   0  0  0  0  0  0  0  0  0  0  0  0
    0.2945   -0.7299    2.7131 O   0  0  0  0  0  0  0  0  0  0  0  0
    1.9265    0.6900    2.1545 N   0  0  0  0  0  0  0  0  0  0  0  0
    2.3348    1.2658    1.4262 H   0  0  0  0  0  0  0  0  0  0  0  0
    2.4310    0.8148    3.5169 C   0  0  0  0  0  0  0  0  0  0  0  0
    2.7426   -0.1622    3.9013 H   0  0  0  0  0  0  0  0  0  0  0  0
    3.2948    1.4858    3.5405 H   0  0  0  0  0  0  0  0  0  0  0  0
    1.6573    1.2226    4.1761 H   0  0  0  0  0  0  0  0  0  0  0  0
  1  2  1  0  0  0  0
  2  3  1  0  0  0  0
  2  4  1  0  0  0  0
  2  5  1  0  0  0  0
  5  6  2  0  0  0  0
  5  7  1  0  0  0  0
  7  8  1  0  0  0  0
  7  9  1  0  0  0  0
  9 10  1  0  0  0  0
  9 11  1  0  0  0  0
  9 16  1  0  0  0  0
 11 12  1  0  0  0  0
 11 13  1  0  0  0  0
 11 14  1  0  0  0  0
 14 15  1  0  0  0  0
 16 17  2  0  0  0  0
 16 18  1  0  0  0  0
 18 19  1  0  0  0  0
 18 20  1  0  0  0  0
 20 21  1  0  0  0  0
 20 22  1  0  0  0  0
 20 23  1  0  0  0  0
M  END
$$$$

  -OEChem-01062216093D

 23 22  0     1  0  0  0  0  0999 V2000
   -2.5667   -3.6158    1.1546 H   0  0  0  0  0  0  0  0  0  0  0  0
   -2.5859   -2.5351    0.9894 C   0  0  0  0  0  0  0  0  0  0  0  0
   -2.8446   -2.0413    1.9292 H   0  0  0  0  0  0  0  0  0  0  0  0
   -3.3460   -2.3047    0.2396 H   0  0  0  0  0  0  0  0  0  0  0  0
   -1.2265   -2.0573    0.5165 C   0  0  0  0  0  0  0  0  0  0  0  0
   -0.3332   -2.8612    0.2991 O   0  0  0  0  0  0  0  0  0  0  0  0
   -1.0287   -0.7257    0.2102 N   0  0  0  0  0  0  0  0  0  0  0  0
   -1.8080   -0.1251    0.4647 H   0  0  0  0  0  0  0  0  0  0  0  0
    0.2971   -0.1001    0.3692 C   0  0  1  0  0  0  0  0  0  0  0  0
    1.0106   -0.6623   -0.2413 H   0  0  0  0  0  0  0  0  0  0  0  0
    0.2047    1.3122   -0.2237 C   0  0  0  0  0  0  0  0  0  0  0  0
    1.1972    1.7726   -0.2573 H   0  0  0  0  0  0  0  0  0  0  0  0
   -0.1598    1.2470   -1.2546 H   0  0  0  0  0  0  0  0  0  0  0  0
   -0.6865    2.1294    0.5452 O   0  0  0  0  0  0  0  0  0  0  0  0
   -0.8050    3.0028    0.1304 H   0  0  0  0  0  0  0  0  0  0  0  0
    0.8760   -0.1136    1.8132 C   0  0  0  0  0  0  0  0  0  0  0  0
    0.5125   -0.9346    2.6470 O   0  0  0  0  0  0  0  0  0  0  0  0
    1.7259    0.8917    2.2472 N   0  0  0  0  0  0  0  0  0  0  0  0
    1.8614    1.6773    1.6199 H   0  0  0  0  0  0  0  0  0  0  0  0
    2.1705    1.0215    3.6304 C   0  0  0  0  0  0  0  0  0  0  0  0
    2.6814    0.1093    3.9566 H   0  0  0  0  0  0  0  0  0  0  0  0
    2.8685    1.8585    3.7259 H   0  0  0  0  0  0  0  0  0  0  0  0
    1.3171    1.2030    4.2921 H   0  0  0  0  0  0  0  0  0  0  0  0
  1  2  1  0  0  0  0
  2  3  1  0  0  0  0
  2  4  1  0  0  0  0
  2  5  1  0  0  0  0
  5  6  2  0  0  0  0
  5  7  1  0  0  0  0
  7  8  1  0  0  0  0
  7  9  1  0  0  0  0
  9 10  1  0  0  0  0
  9 11  1  0  0  0  0
  9 16  1  0  0  0  0
 11 12  1  0  0  0  0
 11 13  1  0  0  0  0
 11 14  1  0  0  0  0
 14 15  1  0  0  0  0
 16 17  2  0  0  0  0
 16 18  1  0  0  0  0
 18 19  1  0  0  0  0
 18 20  1  0  0  0  0
 20 21  1  0  0  0  0
 20 22  1  0  0  0  0
 20 23  1  0  0  0  0
M  END
$$$$

  -OEChem-01062216093D

 23 22  0     1  0  0  0  0  0999 V2000
   -2.5705   -3.6117    1.1593 H   0  0  0  0  0  0  0  0  0  0  0  0
   -2.5831   -2.5289    1.0066 C   0  0  0  0  0  0  0  0  0  0  0  0
   -2.8326   -2.0445    1.9537 H   0  0  0  0  0  0  0  0  0  0  0  0
   -3.3472   -2.2851    0.2650 H   0  0  0  0  0  0  0  0  0  0  0  0
   -1.2234   -2.0556    0.5296 C   0  0  0  0  0  0  0  0  0  0  0  0
   -0.3417   -2.8652    0.2923 O   0  0  0  0  0  0  0  0  0  0  0  0
   -1.0231   -0.7247    0.2215 N   0  0  0  0  0  0  0  0  0  0  0  0
   -1.8080   -0.1246    0.4578 H   0  0  0  0  0  0  0  0  0  0  0  0
    0.2991   -0.0899    0.3784 C   0  0  1  0  0  0  0  0  0  0  0  0
    1.0158   -0.6620   -0.2197 H   0  0  0  0  0  0  0  0  0  0  0  0
    0.2239    1.3135   -0.2394 C   0  0  0  0  0  0  0  0  0  0  0  0
    1.2217    1.7639   -0.2672 H   0  0  0  0  0  0  0  0  0  0  0  0
   -0.1268    1.2312   -1.2736 H   0  0  0  0  0  0  0  0  0  0  0  0
   -0.6701    2.1554    0.5006 O   0  0  0  0  0  0  0  0  0  0  0  0
   -0.8046    3.0052    0.0424 H   0  0  0  0  0  0  0  0  0  0  0  0
    0.8744   -0.0959    1.8231 C   0  0  0  0  0  0  0  0  0  0  0  0
    0.7727   -1.0702    2.5569 O   0  0  0  0  0  0  0  0  0  0  0  0
    1.4512    1.0441    2.3588 N   0  0  0  0  0  0  0  0  0  0  0  0
    1.2806    1.9035    1.8437 H   0  0  0  0  0  0  0  0  0  0  0  0
    1.8680    1.1458    3.7529 C   0  0  0  0  0  0  0  0  0  0  0  0
    2.5937    0.3620    3.9950 H   0  0  0  0  0  0  0  0  0  0  0  0
    2.3384    2.1164    3.9365 H   0  0  0  0  0  0  0  0  0  0  0  0
    1.0051    1.0450    4.4195 H   0  0  0  0  0  0  0  0  0  0  0  0
  1  2  1  0  0  0  0
  2  3  1  0  0  0  0
  2  4  1  0  0  0  0
  2  5  1  0  0  0  0
  5  6  2  0  0  0  0
  5  7  1  0  0  0  0
  7  8  1  0  0  0  0
  7  9  1  0  0  0  0
  9 10  1  0  0  0  0
  9 11  1  0  0  0  0
  9 16  1  0  0  0  0
 11 12  1  0  0  0  0
 11 13  1  0  0  0  0
 11 14  1  0  0  0  0
 14 15  1  0  0  0  0
 16 17  2  0  0  0  0
 16 18  1  0  0  0  0
 18 19  1  0  0  0  0
 18 20  1  0  0  0  0
 20 21  1  0  0  0  0
 20 22  1  0  0  0  0
 20 23  1  0  0  0  0
M  END
$$$$

  -OEChem-01062216093D

 23 22  0     1  0  0  0  0  0999 V2000
   -2.5833   -3.6033    1.1820 H   0  0  0  0  0  0  0  0  0  0  0  0
   -2.6004   -2.5276    0.9851 C   0  0  0  0  0  0  0  0  0  0  0  0
   -2.9005   -2.0098    1.8990 H   0  0  0  0  0  0  0  0  0  0  0  0
   -3.3308   -2.3237    0.1988 H   0  0  0  0  0  0  0  0  0  0  0  0
   -1.2249   -2.0568    0.5523 C   0  0  0  0  0  0  0  0  0  0  0  0
   -0.3386   -2.8700    0.3538 O   0  0  0  0  0  0  0  0  0  0  0  0
   -1.0177   -0.7281    0.2401 N   0  0  0  0  0  0  0  0  0  0  0  0
   -1.8121   -0.1252    0.4344 H   0  0  0  0  0  0  0  0  0  0  0  0
    0.2998   -0.0840    0.3974 C   0  0  1  0  0  0  0  0  0  0  0  0
    1.0216   -0.6588   -0.1924 H   0  0  0  0  0  0  0  0  0  0  0  0
    0.2244    1.3133   -0.2361 C   0  0  0  0  0  0  0  0  0  0  0  0
    1.2227    1.7634   -0.2557 H   0  0  0  0  0  0  0  0  0  0  0  0
   -0.1140    1.2191   -1.2735 H   0  0  0  0  0  0  0  0  0  0  0  0
   -0.6770    2.1686    0.4824 O   0  0  0  0  0  0  0  0  0  0  0  0
   -0.8015    3.0111    0.0070 H   0  0  0  0  0  0  0  0  0  0  0  0
    0.8676   -0.0789    1.8430 C   0  0  0  0  0  0  0  0  0  0  0  0
    1.0617   -1.1143    2.4634 O   0  0  0  0  0  0  0  0  0  0  0  0
    1.1469    1.1144    2.4865 N   0  0  0  0  0  0  0  0  0  0  0  0
    0.7566    1.9451    2.0447 H   0  0  0  0  0  0  0  0  0  0  0  0
    1.5598    1.1941    3.8830 C   0  0  0  0  0  0  0  0  0  0  0  0
    2.4712    0.6096    4.0484 H   0  0  0  0  0  0  0  0  0  0  0  0
    1.7652    2.2333    4.1569 H   0  0  0  0  0  0  0  0  0  0  0  0
    0.7713    0.8099    4.5386 H   0  0  0  0  0  0  0  0  0  0  0  0
  1  2  1  0  0  0  0
  2  3  1  0  0  0  0
  2  4  1  0  0  0  0
  2  5  1  0  0  0  0
  5  6  2  0  0  0  0
  5  7  1  0  0  0  0
  7  8  1  0  0  0  0
  7  9  1  0  0  0  0
  9 10  1  0  0  0  0
  9 11  1  0  0  0  0
  9 16  1  0  0  0  0
 11 12  1  0  0  0  0
 11 13  1  0  0  0  0
 11 14  1  0  0  0  0
 14 15  1  0  0  0  0
 16 17  2  0  0  0  0
 16 18  1  0  0  0  0
 18 19  1  0  0  0  0
 18 20  1  0  0  0  0
 20 21  1  0  0  0  0
 20 22  1  0  0  0  0
 20 23  1  0  0  0  0
M  END
$$$$

  -OEChem-01062216093D

 23 22  0     1  0  0  0  0  0999 V2000
   -2.6441   -3.6045    1.1532 H   0  0  0  0  0  0  0  0  0  0  0  0
   -2.6531   -2.5414    0.8962 C   0  0  0  0  0  0  0  0  0  0  0  0
   -3.0600   -1.9803    1.7408 H   0  0  0  0  0  0  0  0  0  0  0  0
   -3.2944   -2.3944    0.0239 H   0  0  0  0  0  0  0  0  0  0  0  0
   -1.2444   -2.0687    0.5904 C   0  0  0  0  0  0  0  0  0  0  0  0
   -0.3369   -2.8775    0.5212 O   0  0  0  0  0  0  0  0  0  0  0  0
   -1.0204   -0.7437    0.2762 N   0  0  0  0  0  0  0  0  0  0  0  0
   -1.8265   -0.1357    0.3893 H   0  0  0  0  0  0  0  0  0  0  0  0
    0.2912   -0.0899    0.4386 C   0  0  1  0  0  0  0  0  0  0  0  0
    1.0202   -0.6648   -0.1427 H   0  0  0  0  0  0  0  0  0  0  0  0
    0.2074    1.3013   -0.2076 C   0  0  0  0  0  0  0  0  0  0  0  0
    1.2032    1.7577   -0.2145 H   0  0  0  0  0  0  0  0  0  0  0  0
   -0.1149    1.1957   -1.2490 H   0  0  0  0  0  0  0  0  0  0  0  0
   -0.7070    2.1620    0.4908 O   0  0  0  0  0  0  0  0  0  0  0  0
   -0.8025    3.0107    0.0195 H   0  0  0  0  0  0  0  0  0  0  0  0
    0.8503   -0.0700    1.8847 C   0  0  0  0  0  0  0  0  0  0  0  0
    1.3748   -1.0558    2.3811 O   0  0  0  0  0  0  0  0  0  0  0  0
    0.8294    1.0926    2.6336 N   0  0  0  0  0  0  0  0  0  0  0  0
    0.2931    1.8638    2.2371 H   0  0  0  0  0  0  0  0  0  0  0  0
    1.2970    1.1795    4.0114 C   0  0  0  0  0  0  0  0  0  0  0  0
    2.3547    0.9026    4.0751 H   0  0  0  0  0  0  0  0  0  0  0  0
    1.1857    2.2020    4.3847 H   0  0  0  0  0  0  0  0  0  0  0  0
    0.7184    0.5092    4.6556 H   0  0  0  0  0  0  0  0  0  0  0  0
  1  2  1  0  0  0  0
  2  3  1  0  0  0  0
  2  4  1  0  0  0  0
  2  5  1  0  0  0  0
  5  6  2  0  0  0  0
  5  7  1  0  0  0  0
  7  8  1  0  0  0  0
  7  9  1  0  0  0  0
  9 10  1  0  0  0  0
  9 11  1  0  0  0  0
  9 16  1  0  0  0  0
 11 12  1  0  0  0  0
 11 13  1  0  0  0  0
 11 14  1  0  0  0  0
 14 15  1  0  0  0  0
 16 17  2  0  0  0  0
 16 18  1  0  0  0  0
 18 19  1  0  0  0  0
 18 20  1  0  0  0  0
 20 21  1  0  0  0  0
 20 22  1  0  0  0  0
 20 23  1  0  0  0  0
M  END
$$$$

  -OEChem-01062216093D

 23 22  0     1  0  0  0  0  0999 V2000
   -2.7062   -3.6353    1.0513 H   0  0  0  0  0  0  0  0  0  0  0  0
   -2.7013   -2.5729    0.7912 C   0  0  0  0  0  0  0  0  0  0  0  0
   -3.1932   -2.0139    1.5907 H   0  0  0  0  0  0  0  0  0  0  0  0
   -3.2579   -2.4354   -0.1388 H   0  0  0  0  0  0  0  0  0  0  0  0
   -1.2748   -2.0862    0.6186 C   0  0  0  0  0  0  0  0  0  0  0  0
   -0.3534   -2.8776    0.6926 O   0  0  0  0  0  0  0  0  0  0  0  0
   -1.0369   -0.7632    0.3076 N   0  0  0  0  0  0  0  0  0  0  0  0
   -1.8484   -0.1529    0.3412 H   0  0  0  0  0  0  0  0  0  0  0  0
    0.2728   -0.1082    0.4788 C   0  0  1  0  0  0  0  0  0  0  0  0
    1.0045   -0.6827   -0.0996 H   0  0  0  0  0  0  0  0  0  0  0  0
    0.1957    1.2855   -0.1623 C   0  0  0  0  0  0  0  0  0  0  0  0
    1.1926    1.7386   -0.1570 H   0  0  0  0  0  0  0  0  0  0  0  0
   -0.1159    1.1857   -1.2074 H   0  0  0  0  0  0  0  0  0  0  0  0
   -0.7215    2.1487    0.5300 O   0  0  0  0  0  0  0  0  0  0  0  0
   -0.7714    3.0158    0.0859 H   0  0  0  0  0  0  0  0  0  0  0  0
    0.8180   -0.0886    1.9278 C   0  0  0  0  0  0  0  0  0  0  0  0
    1.6257   -0.9232    2.3099 O   0  0  0  0  0  0  0  0  0  0  0  0
    0.5179    0.9595    2.7781 N   0  0  0  0  0  0  0  0  0  0  0  0
   -0.0995    1.6785    2.4018 H   0  0  0  0  0  0  0  0  0  0  0  0
    1.0581    1.1010    4.1239 C   0  0  0  0  0  0  0  0  0  0  0  0
    2.1488    1.1924    4.0912 H   0  0  0  0  0  0  0  0  0  0  0  0
    0.6496    1.9956    4.6035 H   0  0  0  0  0  0  0  0  0  0  0  0
    0.7953    0.2308    4.7346 H   0  0  0  0  0  0  0  0  0  0  0  0
  1  2  1  0  0  0  0
  2  3  1  0  0  0  0
  2  4  1  0  0  0  0
  2  5  1  0  0  0  0
  5  6  2  0  0  0  0
  5  7  1  0  0  0  0
  7  8  1  0  0  0  0
  7  9  1  0  0  0  0
  9 10  1  0  0  0  0
  9 11  1  0  0  0  0
  9 16  1  0  0  0  0
 11 12  1  0  0  0  0
 11 13  1  0  0  0  0
 11 14  1  0  0  0  0
 14 15  1  0  0  0  0
 16 17  2  0  0  0  0
 16 18  1  0  0  0  0
 18 19  1  0  0  0  0
 18 20  1  0  0  0  0
 20 21  1  0  0  0  0
 20 22  1  0  0  0  0
 20 23  1  0  0  0  0
M  END
$$$$

  -OEChem-01062216093D

 23 22  0     1  0  0  0  0  0999 V2000
   -2.7473   -3.6657    0.9558 H   0  0  0  0  0  0  0  0  0  0  0  0
   -2.7328   -2.6002    0.7092 C   0  0  0  0  0  0  0  0  0  0  0  0
   -3.2761   -2.0532    1.4832 H   0  0  0  0  0  0  0  0  0  0  0  0
   -3.2324   -2.4549   -0.2515 H   0  0  0  0  0  0  0  0  0  0  0  0
   -1.3015   -2.1038    0.6302 C   0  0  0  0  0  0  0  0  0  0  0  0
   -0.3807   -2.8800    0.8060 O   0  0  0  0  0  0  0  0  0  0  0  0
   -1.0514   -0.7821    0.3246 N   0  0  0  0  0  0  0  0  0  0  0  0
   -1.8607   -0.1686    0.2971 H   0  0  0  0  0  0  0  0  0  0  0  0
    0.2616   -0.1358    0.5008 C   0  0  1  0  0  0  0  0  0  0  0  0
    0.9907   -0.7059   -0.0853 H   0  0  0  0  0  0  0  0  0  0  0  0
    0.1904    1.2693   -0.1121 C   0  0  0  0  0  0  0  0  0  0  0  0
    1.1900    1.7165   -0.0981 H   0  0  0  0  0  0  0  0  0  0  0  0
   -0.1245    1.1945   -1.1583 H   0  0  0  0  0  0  0  0  0  0  0  0
   -0.7195    2.1206    0.6038 O   0  0  0  0  0  0  0  0  0  0  0  0
   -0.7315    3.0116    0.2072 H   0  0  0  0  0  0  0  0  0  0  0  0
    0.8013   -0.1260    1.9491 C   0  0  0  0  0  0  0  0  0  0  0  0
    1.8103   -0.7527    2.2423 O   0  0  0  0  0  0  0  0  0  0  0  0
    0.2663    0.7380    2.8864 N   0  0  0  0  0  0  0  0  0  0  0  0
   -0.4273    1.3948    2.5311 H   0  0  0  0  0  0  0  0  0  0  0  0
    0.8381    0.9488    4.2098 C   0  0  0  0  0  0  0  0  0  0  0  0
    1.8394    1.3843    4.1298 H   0  0  0  0  0  0  0  0  0  0  0  0
    0.2074    1.6291    4.7899 H   0  0  0  0  0  0  0  0  0  0  0  0
    0.9089   -0.0003    4.7517 H   0  0  0  0  0  0  0  0  0  0  0  0
  1  2  1  0  0  0  0
  2  3  1  0  0  0  0
  2  4  1  0  0  0  0
  2  5  1  0  0  0  0
  5  6  2  0  0  0  0
  5  7  1  0  0  0  0
  7  8  1  0  0  0  0
  7  9  1  0  0  0  0
  9 10  1  0  0  0  0
  9 11  1  0  0  0  0
  9 16  1  0  0  0  0
 11 12  1  0  0  0  0
 11 13  1  0  0  0  0
 11 14  1  0  0  0  0
 14 15  1  0  0  0  0
 16 17  2  0  0  0  0
 16 18  1  0  0  0  0
 18 19  1  0  0  0  0
 18 20  1  0  0  0  0
 20 21  1  0  0  0  0
 20 22  1  0  0  0  0
 20 23  1  0  0  0  0
M  END
$$$$

  -OEChem-01062216093D

 23 22  0     1  0  0  0  0  0999 V2000
   -2.7665   -3.6846    0.9068 H   0  0  0  0  0  0  0  0  0  0  0  0
   -2.7483   -2.6187    0.6622 C   0  0  0  0  0  0  0  0  0  0  0  0
   -3.3225   -2.0755    1.4163 H   0  0  0  0  0  0  0  0  0  0  0  0
   -3.2129   -2.4750   -0.3162 H   0  0  0  0  0  0  0  0  0  0  0  0
   -1.3176   -2.1148    0.6366 C   0  0  0  0  0  0  0  0  0  0  0  0
   -0.4001   -2.8799    0.8714 O   0  0  0  0  0  0  0  0  0  0  0  0
   -1.0596   -0.7948    0.3303 N   0  0  0  0  0  0  0  0  0  0  0  0
   -1.8641   -0.1788    0.2554 H   0  0  0  0  0  0  0  0  0  0  0  0
    0.2594   -0.1585    0.5001 C   0  0  1  0  0  0  0  0  0  0  0  0
    0.9812   -0.7234   -0.0996 H   0  0  0  0  0  0  0  0  0  0  0  0
    0.1855    1.2579   -0.0805 C   0  0  0  0  0  0  0  0  0  0  0  0
    1.1865    1.7022   -0.0682 H   0  0  0  0  0  0  0  0  0  0  0  0
   -0.1445    1.2116   -1.1236 H   0  0  0  0  0  0  0  0  0  0  0  0
   -0.7116    2.0871    0.6754 O   0  0  0  0  0  0  0  0  0  0  0  0
   -0.6936    3.0015    0.3372 H   0  0  0  0  0  0  0  0  0  0  0  0
    0.8101   -0.1523    1.9419 C   0  0  0  0  0  0  0  0  0  0  0  0
    1.9461   -0.5477    2.1693 O   0  0  0  0  0  0  0  0  0  0  0  0
    0.1040    0.4748    2.9522 N   0  0  0  0  0  0  0  0  0  0  0  0
   -0.6931    1.0269    2.6433 H   0  0  0  0  0  0  0  0  0  0  0  0
    0.6545    0.7121    4.2801 C   0  0  0  0  0  0  0  0  0  0  0  0
    1.5053    1.3991    4.2249 H   0  0  0  0  0  0  0  0  0  0  0  0
   -0.1070    1.1508    4.9317 H   0  0  0  0  0  0  0  0  0  0  0  0
    0.9898   -0.2289    4.7294 H   0  0  0  0  0  0  0  0  0  0  0  0
  1  2  1  0  0  0  0
  2  3  1  0  0  0  0
  2  4  1  0  0  0  0
  2  5  1  0  0  0  0
  5  6  2  0  0  0  0
  5  7  1  0  0  0  0
  7  8  1  0  0  0  0
  7  9  1  0  0  0  0
  9 10  1  0  0  0  0
  9 11  1  0  0  0  0
  9 16  1  0  0  0  0
 11 12  1  0  0  0  0
 11 13  1  0  0  0  0
 11 14  1  0  0  0  0
 14 15  1  0  0  0  0
 16 17  2  0  0  0  0
 16 18  1  0  0  0  0
 18 19  1  0  0  0  0
 18 20  1  0  0  0  0
 20 21  1  0  0  0  0
 20 22  1  0  0  0  0
 20 23  1  0  0  0  0
M  END
$$$$

  -OEChem-01062216093D

 23 22  0     1  0  0  0  0  0999 V2000
   -2.7778   -3.6890    0.8900 H   0  0  0  0  0  0  0  0  0  0  0  0
   -2.7553   -2.6260    0.6331 C   0  0  0  0  0  0  0  0  0  0  0  0
   -3.3520   -2.0752    1.3640 H   0  0  0  0  0  0  0  0  0  0  0  0
   -3.1925   -2.4953   -0.3597 H   0  0  0  0  0  0  0  0  0  0  0  0
   -1.3259   -2.1184    0.6416 C   0  0  0  0  0  0  0  0  0  0  0  0
   -0.4123   -2.8750    0.9170 O   0  0  0  0  0  0  0  0  0  0  0  0
   -1.0630   -0.8009    0.3304 N   0  0  0  0  0  0  0  0  0  0  0  0
   -1.8626   -0.1847    0.2145 H   0  0  0  0  0  0  0  0  0  0  0  0
    0.2598   -0.1690    0.4898 C   0  0  1  0  0  0  0  0  0  0  0  0
    0.9757   -0.7308   -0.1196 H   0  0  0  0  0  0  0  0  0  0  0  0
    0.1776    1.2518   -0.0731 C   0  0  0  0  0  0  0  0  0  0  0  0
    1.1777    1.6986   -0.0674 H   0  0  0  0  0  0  0  0  0  0  0  0
   -0.1676    1.2211   -1.1118 H   0  0  0  0  0  0  0  0  0  0  0  0
   -0.7104    2.0608    0.7129 O   0  0  0  0  0  0  0  0  0  0  0  0
   -0.6663    2.9911    0.4256 H   0  0  0  0  0  0  0  0  0  0  0  0
    0.8294   -0.1554    1.9229 C   0  0  0  0  0  0  0  0  0  0  0  0
    2.0321   -0.3018    2.1015 O   0  0  0  0  0  0  0  0  0  0  0  0
    0.0267    0.1948    2.9939 N   0  0  0  0  0  0  0  0  0  0  0  0
   -0.8955    0.5477    2.7568 H   0  0  0  0  0  0  0  0  0  0  0  0
    0.5420    0.4078    4.3399 C   0  0  0  0  0  0  0  0  0  0  0  0
    1.2361    1.2544    4.3552 H   0  0  0  0  0  0  0  0  0  0  0  0
   -0.2800    0.6183    5.0306 H   0  0  0  0  0  0  0  0  0  0  0  0
    1.0677   -0.4854    4.6941 H   0  0  0  0  0  0  0  0  0  0  0  0
  1  2  1  0  0  0  0
  2  3  1  0  0  0  0
  2  4  1  0  0  0  0
  2  5  1  0  0  0  0
  5  6  2  0  0  0  0
  5  7  1  0  0  0  0
  7  8  1  0  0  0  0
  7  9  1  0  0  0  0
  9 10  1  0  0  0  0
  9 11  1  0  0  0  0
  9 16  1  0  0  0  0
 11 12  1  0  0  0  0
 11 13  1  0  0  0  0
 11 14  1  0  0  0  0
 14 15  1  0  0  0  0
 16 17  2  0  0  0  0
 16 18  1  0  0  0  0
 18 19  1  0  0  0  0
 18 20  1  0  0  0  0
 20 21  1  0  0  0  0
 20 22  1  0  0  0  0
 20 23  1  0  0  0  0
M  END
$$$$

  -OEChem-01062216093D

 23 22  0     1  0  0  0  0  0999 V2000
   -2.7892   -3.6803    0.8943 H   0  0  0  0  0  0  0  0  0  0  0  0
   -2.7608   -2.6250    0.6085 C   0  0  0  0  0  0  0  0  0  0  0  0
   -3.3873   -2.0565    1.2997 H   0  0  0  0  0  0  0  0  0  0  0  0
   -3.1601   -2.5240   -0.4036 H   0  0  0  0  0  0  0  0  0  0  0  0
   -1.3347   -2.1104    0.6560 C   0  0  0  0  0  0  0  0  0  0  0  0
   -0.4263   -2.8558    0.9761 O   0  0  0  0  0  0  0  0  0  0  0  0
   -1.0674   -0.7961    0.3362 N   0  0  0  0  0  0  0  0  0  0  0  0
   -1.8626   -0.1829    0.1788 H   0  0  0  0  0  0  0  0  0  0  0  0
    0.2560   -0.1612    0.4848 C   0  0  1  0  0  0  0  0  0  0  0  0
    0.9683   -0.7267   -0.1250 H   0  0  0  0  0  0  0  0  0  0  0  0
    0.1654    1.2554   -0.0876 C   0  0  0  0  0  0  0  0  0  0  0  0
    1.1630    1.7076   -0.0906 H   0  0  0  0  0  0  0  0  0  0  0  0
   -0.1864    1.2184   -1.1238 H   0  0  0  0  0  0  0  0  0  0  0  0
   -0.7211    2.0616    0.7010 O   0  0  0  0  0  0  0  0  0  0  0  0
   -0.6530    2.9980    0.4408 H   0  0  0  0  0  0  0  0  0  0  0  0
    0.8463   -0.1280    1.9096 C   0  0  0  0  0  0  0  0  0  0  0  0
    2.0576   -0.0187    2.0583 O   0  0  0  0  0  0  0  0  0  0  0  0
    0.0245   -0.0733    3.0212 N   0  0  0  0  0  0  0  0  0  0  0  0
   -0.9749   -0.0630    2.8496 H   0  0  0  0  0  0  0  0  0  0  0  0
    0.5193    0.0531    4.3853 C   0  0  0  0  0  0  0  0  0  0  0  0
    1.0794    0.9864    4.5044 H   0  0  0  0  0  0  0  0  0  0  0  0
   -0.3166    0.0579    5.0914 H   0  0  0  0  0  0  0  0  0  0  0  0
    1.1764   -0.7874    4.6332 H   0  0  0  0  0  0  0  0  0  0  0  0
  1  2  1  0  0  0  0
  2  3  1  0  0  0  0
  2  4  1  0  0  0  0
  2  5  1  0  0  0  0
  5  6  2  0  0  0  0
  5  7  1  0  0  0  0
  7  8  1  0  0  0  0
  7  9  1  0  0  0  0
  9 10  1  0  0  0  0
  9 11  1  0  0  0  0
  9 16  1  0  0  0  0
 11 12  1  0  0  0  0
 11 13  1  0  0  0  0
 11 14  1  0  0  0  0
 14 15  1  0  0  0  0
 16 17  2  0  0  0  0
 16 18  1  0  0  0  0
 18 19  1  0  0  0  0
 18 20  1  0  0  0  0
 20 21  1  0  0  0  0
 20 22  1  0  0  0  0
 20 23  1  0  0  0  0
M  END
$$$$

  -OEChem-01062216093D

 23 22  0     1  0  0  0  0  0999 V2000
   -2.8003   -3.6738    0.8666 H   0  0  0  0  0  0  0  0  0  0  0  0
   -2.7674   -2.6191    0.5791 C   0  0  0  0  0  0  0  0  0  0  0  0
   -3.4219   -2.0518    1.2450 H   0  0  0  0  0  0  0  0  0  0  0  0
   -3.1312   -2.5240   -0.4468 H   0  0  0  0  0  0  0  0  0  0  0  0
   -1.3468   -2.0958    0.6757 C   0  0  0  0  0  0  0  0  0  0  0  0
   -0.4545   -2.8194    1.0801 O   0  0  0  0  0  0  0  0  0  0  0  0
   -1.0702   -0.7876    0.3414 N   0  0  0  0  0  0  0  0  0  0  0  0
   -1.8613   -0.1795    0.1444 H   0  0  0  0  0  0  0  0  0  0  0  0
    0.2480   -0.1408    0.4964 C   0  0  1  0  0  0  0  0  0  0  0  0
    0.9699   -0.7126   -0.0954 H   0  0  0  0  0  0  0  0  0  0  0  0
    0.1499    1.2622   -0.1102 C   0  0  0  0  0  0  0  0  0  0  0  0
    1.1424    1.7258   -0.1119 H   0  0  0  0  0  0  0  0  0  0  0  0
   -0.1883    1.1984   -1.1497 H   0  0  0  0  0  0  0  0  0  0  0  0
   -0.7556    2.0748    0.6487 O   0  0  0  0  0  0  0  0  0  0  0  0
   -0.6613    3.0126    0.4031 H   0  0  0  0  0  0  0  0  0  0  0  0
    0.8360   -0.0700    1.9228 C   0  0  0  0  0  0  0  0  0  0  0  0
    1.9990    0.2865    2.0741 O   0  0  0  0  0  0  0  0  0  0  0  0
    0.0540   -0.3029    3.0401 N   0  0  0  0  0  0  0  0  0  0  0  0
   -0.8520   -0.7240    2.8664 H   0  0  0  0  0  0  0  0  0  0  0  0
    0.5885   -0.3221    4.3952 C   0  0  0  0  0  0  0  0  0  0  0  0
    1.0754    0.6303    4.6301 H   0  0  0  0  0  0  0  0  0  0  0  0
   -0.2181   -0.4821    5.1168 H   0  0  0  0  0  0  0  0  0  0  0  0
    1.3199   -1.1294    4.5059 H   0  0  0  0  0  0  0  0  0  0  0  0
  1  2  1  0  0  0  0
  2  3  1  0  0  0  0
  2  4  1  0  0  0  0
  2  5  1  0  0  0  0
  5  6  2  0  0  0  0
  5  7  1  0  0  0  0
  7  8  1  0  0  0  0
  7  9  1  0  0  0  0
  9 10  1  0  0  0  0
  9 11  1  0  0  0  0
  9 16  1  0  0  0  0
 11 12  1  0  0  0  0
 11 13  1  0  0  0  0
 11 14  1  0  0  0  0
 14 15  1  0  0  0  0
 16 17  2  0  0  0  0
 16 18  1  0  0  0  0
 18 19  1  0  0  0  0
 18 20  1  0  0  0  0
 20 21  1  0  0  0  0
 20 22  1  0  0  0  0
 20 23  1  0  0  0  0
M  END
$$$$

  -OEChem-01062216093D

 23 22  0     1  0  0  0  0  0999 V2000
   -2.8442   -3.6642    0.7913 H   0  0  0  0  0  0  0  0  0  0  0  0
   -2.7971   -2.6032    0.5297 C   0  0  0  0  0  0  0  0  0  0  0  0
   -3.4594   -2.0459    1.1965 H   0  0  0  0  0  0  0  0  0  0  0  0
   -3.1402   -2.4804   -0.5005 H   0  0  0  0  0  0  0  0  0  0  0  0
   -1.3748   -2.0943    0.6663 C   0  0  0  0  0  0  0  0  0  0  0  0
   -0.5066   -2.8185    1.1207 O   0  0  0  0  0  0  0  0  0  0  0  0
   -1.0757   -0.7886    0.3454 N   0  0  0  0  0  0  0  0  0  0  0  0
   -1.8595   -0.1722    0.1441 H   0  0  0  0  0  0  0  0  0  0  0  0
    0.2432   -0.1442    0.5124 C   0  0  1  0  0  0  0  0  0  0  0  0
    0.9672   -0.7149   -0.0771 H   0  0  0  0  0  0  0  0  0  0  0  0
    0.1368    1.2560   -0.1030 C   0  0  0  0  0  0  0  0  0  0  0  0
    1.1242    1.7302   -0.1055 H   0  0  0  0  0  0  0  0  0  0  0  0
   -0.1968    1.1839   -1.1433 H   0  0  0  0  0  0  0  0  0  0  0  0
   -0.7798    2.0645    0.6467 O   0  0  0  0  0  0  0  0  0  0  0  0
   -0.6752    3.0044    0.4148 H   0  0  0  0  0  0  0  0  0  0  0  0
    0.8352   -0.0737    1.9402 C   0  0  0  0  0  0  0  0  0  0  0  0
    1.9018    0.5036    2.1218 O   0  0  0  0  0  0  0  0  0  0  0  0
    0.1632   -0.5943    3.0315 N   0  0  0  0  0  0  0  0  0  0  0  0
   -0.5362   -1.2946    2.7973 H   0  0  0  0  0  0  0  0  0  0  0  0
    0.7465   -0.6320    4.3662 C   0  0  0  0  0  0  0  0  0  0  0  0
    1.0245    0.3756    4.6930 H   0  0  0  0  0  0  0  0  0  0  0  0
    0.0246   -1.0370    5.0816 H   0  0  0  0  0  0  0  0  0  0  0  0
    1.6400   -1.2650    4.3758 H   0  0  0  0  0  0  0  0  0  0  0  0
  1  2  1  0  0  0  0
  2  3  1  0  0  0  0
  2  4  1  0  0  0  0
  2  5  1  0  0  0  0
  5  6  2  0  0  0  0
  5  7  1  0  0  0  0
  7  8  1  0  0  0  0
  7  9  1  0  0  0  0
  9 10  1  0  0  0  0
  9 11  1  0  0  0  0
  9 16  1  0  0  0  0
 11 12  1  0  0  0  0
 11 13  1  0  0  0  0
 11 14  1  0  0  0  0
 14 15  1  0  0  0  0
 16 17  2  0  0  0  0
 16 18  1  0  0  0  0
 18 19  1  0  0  0  0
 18 20  1  0  0  0  0
 20 21  1  0  0  0  0
 20 22  1  0  0  0  0
 20 23  1  0  0  0  0
M  END
$$$$

  -OEChem-01062216093D

 23 22  0     1  0  0  0  0  0999 V2000
   -2.8640   -3.6468    0.7967 H   0  0  0  0  0  0  0  0  0  0  0  0
   -2.8073   -2.5854    0.5389 C   0  0  0  0  0  0  0  0  0  0  0  0
   -3.4412   -2.0211    1.2272 H   0  0  0  0  0  0  0  0  0  0  0  0
   -3.1778   -2.4513   -0.4802 H   0  0  0  0  0  0  0  0  0  0  0  0
   -1.3740   -2.0992    0.6375 C   0  0  0  0  0  0  0  0  0  0  0  0
   -0.4997   -2.8485    1.0392 O   0  0  0  0  0  0  0  0  0  0  0  0
   -1.0687   -0.7910    0.3329 N   0  0  0  0  0  0  0  0  0  0  0  0
   -1.8560   -0.1650    0.1791 H   0  0  0  0  0  0  0  0  0  0  0  0
    0.2475   -0.1438    0.5132 C   0  0  1  0  0  0  0  0  0  0  0  0
    0.9765   -0.7086   -0.0757 H   0  0  0  0  0  0  0  0  0  0  0  0
    0.1306    1.2556   -0.1051 C   0  0  0  0  0  0  0  0  0  0  0  0
    1.1126    1.7406   -0.1036 H   0  0  0  0  0  0  0  0  0  0  0  0
   -0.1962    1.1798   -1.1474 H   0  0  0  0  0  0  0  0  0  0  0  0
   -0.7993    2.0540    0.6392 O   0  0  0  0  0  0  0  0  0  0  0  0
   -0.6749    2.9986    0.4384 H   0  0  0  0  0  0  0  0  0  0  0  0
    0.8355   -0.0813    1.9461 C   0  0  0  0  0  0  0  0  0  0  0  0
    1.7725    0.6714    2.1905 O   0  0  0  0  0  0  0  0  0  0  0  0
    0.3310   -0.8612    2.9710 N   0  0  0  0  0  0  0  0  0  0  0  0
   -0.2013   -1.6723    2.6551 H   0  0  0  0  0  0  0  0  0  0  0  0
    0.9434   -0.9202    4.2919 C   0  0  0  0  0  0  0  0  0  0  0  0
    0.9985    0.0798    4.7349 H   0  0  0  0  0  0  0  0  0  0  0  0
    0.3484   -1.5562    4.9542 H   0  0  0  0  0  0  0  0  0  0  0  0
    1.9553   -1.3336    4.2268 H   0  0  0  0  0  0  0  0  0  0  0  0
  1  2  1  0  0  0  0
  2  3  1  0  0  0  0
  2  4  1  0  0  0  0
  2  5  1  0  0  0  0
  5  6  2  0  0  0  0
  5  7  1  0  0  0  0
  7  8  1  0  0  0  0
  7  9  1  0  0  0  0
  9 10  1  0  0  0  0
  9 11  1  0  0  0  0
  9 16  1  0  0  0  0
 11 12  1  0  0  0  0
 11 13  1  0  0  0  0
 11 14  1  0  0  0  0
 14 15  1  0  0  0  0
 16 17  2  0  0  0  0
 16 18  1  0  0  0  0
 18 19  1  0  0  0  0
 18 20  1  0  0  0  0
 20 21  1  0  0  0  0
 20 22  1  0  0  0  0
 20 23  1  0  0  0  0
M  END
$$$$

  -OEChem-01062216093D

 23 22  0     1  0  0  0  0  0999 V2000
   -2.8625   -3.6369    0.8156 H   0  0  0  0  0  0  0  0  0  0  0  0
   -2.8045   -2.5743    0.5633 C   0  0  0  0  0  0  0  0  0  0  0  0
   -3.4090   -2.0093    1.2771 H   0  0  0  0  0  0  0  0  0  0  0  0
   -3.2079   -2.4291   -0.4418 H   0  0  0  0  0  0  0  0  0  0  0  0
   -1.3643   -2.1019    0.6163 C   0  0  0  0  0  0  0  0  0  0  0  0
   -0.4781   -2.8755    0.9409 O   0  0  0  0  0  0  0  0  0  0  0  0
   -1.0602   -0.7906    0.3215 N   0  0  0  0  0  0  0  0  0  0  0  0
   -1.8517   -0.1589    0.2179 H   0  0  0  0  0  0  0  0  0  0  0  0
    0.2529   -0.1407    0.5134 C   0  0  1  0  0  0  0  0  0  0  0  0
    0.9877   -0.7011   -0.0727 H   0  0  0  0  0  0  0  0  0  0  0  0
    0.1273    1.2554   -0.1117 C   0  0  0  0  0  0  0  0  0  0  0  0
    1.1050    1.7491   -0.1053 H   0  0  0  0  0  0  0  0  0  0  0  0
   -0.1918    1.1732   -1.1558 H   0  0  0  0  0  0  0  0  0  0  0  0
   -0.8154    2.0467    0.6242 O   0  0  0  0  0  0  0  0  0  0  0  0
   -0.6723    2.9944    0.4527 H   0  0  0  0  0  0  0  0  0  0  0  0
    0.8327   -0.0839    1.9520 C   0  0  0  0  0  0  0  0  0  0  0  0
    1.6202    0.8008    2.2711 O   0  0  0  0  0  0  0  0  0  0  0  0
    0.5450   -1.0650    2.8829 N   0  0  0  0  0  0  0  0  0  0  0  0
    0.1161   -1.9094    2.4987 H   0  0  0  0  0  0  0  0  0  0  0  0
    1.1980   -1.1516    4.1825 C   0  0  0  0  0  0  0  0  0  0  0  0
    1.0524   -0.2256    4.7486 H   0  0  0  0  0  0  0  0  0  0  0  0
    0.7741   -1.9777    4.7613 H   0  0  0  0  0  0  0  0  0  0  0  0
    2.2720   -1.3260    4.0609 H   0  0  0  0  0  0  0  0  0  0  0  0
  1  2  1  0  0  0  0
  2  3  1  0  0  0  0
  2  4  1  0  0  0  0
  2  5  1  0  0  0  0
  5  6  2  0  0  0  0
  5  7  1  0  0  0  0
  7  8  1  0  0  0  0
  7  9  1  0  0  0  0
  9 10  1  0  0  0  0
  9 11  1  0  0  0  0
  9 16  1  0  0  0  0
 11 12  1  0  0  0  0
 11 13  1  0  0  0  0
 11 14  1  0  0  0  0
 14 15  1  0  0  0  0
 16 17  2  0  0  0  0
 16 18  1  0  0  0  0
 18 19  1  0  0  0  0
 18 20  1  0  0  0  0
 20 21  1  0  0  0  0
 20 22  1  0  0  0  0
 20 23  1  0  0  0  0
M  END
$$$$

  -OEChem-01062216093D

 23 22  0     1  0  0  0  0  0999 V2000
   -2.8356   -3.6371    0.8593 H   0  0  0  0  0  0  0  0  0  0  0  0
   -2.7871   -2.5743    0.6062 C   0  0  0  0  0  0  0  0  0  0  0  0
   -3.3632   -2.0105    1.3440 H   0  0  0  0  0  0  0  0  0  0  0  0
   -3.2303   -2.4275   -0.3816 H   0  0  0  0  0  0  0  0  0  0  0  0
   -1.3454   -2.1027    0.6029 C   0  0  0  0  0  0  0  0  0  0  0  0
   -0.4449   -2.8876    0.8556 O   0  0  0  0  0  0  0  0  0  0  0  0
   -1.0536   -0.7871    0.3127 N   0  0  0  0  0  0  0  0  0  0  0  0
   -1.8498   -0.1555    0.2513 H   0  0  0  0  0  0  0  0  0  0  0  0
    0.2577   -0.1348    0.5018 C   0  0  1  0  0  0  0  0  0  0  0  0
    0.9925   -0.6898   -0.0893 H   0  0  0  0  0  0  0  0  0  0  0  0
    0.1238    1.2607   -0.1238 C   0  0  0  0  0  0  0  0  0  0  0  0
    1.1002    1.7570   -0.1166 H   0  0  0  0  0  0  0  0  0  0  0  0
   -0.1953    1.1785   -1.1680 H   0  0  0  0  0  0  0  0  0  0  0  0
   -0.8203    2.0502    0.6126 O   0  0  0  0  0  0  0  0  0  0  0  0
   -0.6248    2.9986    0.5101 H   0  0  0  0  0  0  0  0  0  0  0  0
    0.8370   -0.0899    1.9417 C   0  0  0  0  0  0  0  0  0  0  0  0
    1.4479    0.8923    2.3499 O   0  0  0  0  0  0  0  0  0  0  0  0
    0.8073   -1.2097    2.7513 N   0  0  0  0  0  0  0  0  0  0  0  0
    0.4461   -2.0637    2.3189 H   0  0  0  0  0  0  0  0  0  0  0  0
    1.4758   -1.3011    4.0423 C   0  0  0  0  0  0  0  0  0  0  0  0
    1.1267   -0.5079    4.7118 H   0  0  0  0  0  0  0  0  0  0  0  0
    1.2593   -2.2662    4.5103 H   0  0  0  0  0  0  0  0  0  0  0  0
    2.5599   -1.2092    3.9199 H   0  0  0  0  0  0  0  0  0  0  0  0
  1  2  1  0  0  0  0
  2  3  1  0  0  0  0
  2  4  1  0  0  0  0
  2  5  1  0  0  0  0
  5  6  2  0  0  0  0
  5  7  1  0  0  0  0
  7  8  1  0  0  0  0
  7  9  1  0  0  0  0
  9 10  1  0  0  0  0
  9 11  1  0  0  0  0
  9 16  1  0  0  0  0
 11 12  1  0  0  0  0
 11 13  1  0  0  0  0
 11 14  1  0  0  0  0
 14 15  1  0  0  0  0
 16 17  2  0  0  0  0
 16 18  1  0  0  0  0
 18 19  1  0  0  0  0
 18 20  1  0  0  0  0
 20 21  1  0  0  0  0
 20 22  1  0  0  0  0
 20 23  1  0  0  0  0
M  END
$$$$

  -OEChem-01062216093D

 23 22  0     1  0  0  0  0  0999 V2000
   -2.7939   -3.6106    0.9573 H   0  0  0  0  0  0  0  0  0  0  0  0
   -2.7572   -2.5456    0.7110 C   0  0  0  0  0  0  0  0  0  0  0  0
   -3.2881   -1.9867    1.4854 H   0  0  0  0  0  0  0  0  0  0  0  0
   -3.2564   -2.3895   -0.2486 H   0  0  0  0  0  0  0  0  0  0  0  0
   -1.3170   -2.0766    0.6283 C   0  0  0  0  0  0  0  0  0  0  0  0
   -0.4042   -2.8593    0.8429 O   0  0  0  0  0  0  0  0  0  0  0  0
   -1.0373   -0.7705    0.2855 N   0  0  0  0  0  0  0  0  0  0  0  0
   -1.8350   -0.1416    0.2102 H   0  0  0  0  0  0  0  0  0  0  0  0
    0.2866   -0.1246    0.3760 C   0  0  1  0  0  0  0  0  0  0  0  0
    0.9858   -0.6929   -0.2450 H   0  0  0  0  0  0  0  0  0  0  0  0
    0.1430    1.2709   -0.2489 C   0  0  0  0  0  0  0  0  0  0  0  0
    1.1248    1.7514   -0.3191 H   0  0  0  0  0  0  0  0  0  0  0  0
   -0.2570    1.1842   -1.2643 H   0  0  0  0  0  0  0  0  0  0  0  0
   -0.7320    2.0773    0.5466 O   0  0  0  0  0  0  0  0  0  0  0  0
   -0.3172    2.2062    1.4269 H   0  0  0  0  0  0  0  0  0  0  0  0
    0.9122   -0.0715    1.7954 C   0  0  0  0  0  0  0  0  0  0  0  0
    1.1441    1.0038    2.3414 O   0  0  0  0  0  0  0  0  0  0  0  0
    1.1773   -1.2303    2.4973 N   0  0  0  0  0  0  0  0  0  0  0  0
    0.8642   -2.1025    2.0609 H   0  0  0  0  0  0  0  0  0  0  0  0
    1.6740   -1.2618    3.8663 C   0  0  0  0  0  0  0  0  0  0  0  0
    0.9700   -0.7645    4.5414 H   0  0  0  0  0  0  0  0  0  0  0  0
    1.7988   -2.2973    4.1973 H   0  0  0  0  0  0  0  0  0  0  0  0
    2.6441   -0.7587    3.9336 H   0  0  0  0  0  0  0  0  0  0  0  0
  1  2  1  0  0  0  0
  2  3  1  0  0  0  0
  2  4  1  0  0  0  0
  2  5  1  0  0  0  0
  5  6  2  0  0  0  0
  5  7  1  0  0  0  0
  7  8  1  0  0  0  0
  7  9  1  0  0  0  0
  9 10  1  0  0  0  0
  9 11  1  0  0  0  0
  9 16  1  0  0  0  0
 11 12  1  0  0  0  0
 11 13  1  0  0  0  0
 11 14  1  0  0  0  0
 14 15  1  0  0  0  0
 16 17  2  0  0  0  0
 16 18  1  0  0  0  0
 18 19  1  0  0  0  0
 18 20  1  0  0  0  0
 20 21  1  0  0  0  0
 20 22  1  0  0  0  0
 20 23  1  0  0  0  0
M  END
$$$$

  -OEChem-01062216093D

 23 22  0     1  0  0  0  0  0999 V2000
   -2.7182   -3.6118    1.0266 H   0  0  0  0  0  0  0  0  0  0  0  0
   -2.7074   -2.5481    0.7727 C   0  0  0  0  0  0  0  0  0  0  0  0
   -3.2259   -1.9933    1.5584 H   0  0  0  0  0  0  0  0  0  0  0  0
   -3.2362   -2.4071   -0.1732 H   0  0  0  0  0  0  0  0  0  0  0  0
   -1.2785   -2.0553    0.6470 C   0  0  0  0  0  0  0  0  0  0  0  0
   -0.3447   -2.8164    0.8524 O   0  0  0  0  0  0  0  0  0  0  0  0
   -1.0277   -0.7487    0.2841 N   0  0  0  0  0  0  0  0  0  0  0  0
   -1.8316   -0.1252    0.2328 H   0  0  0  0  0  0  0  0  0  0  0  0
    0.2951   -0.1036    0.3557 C   0  0  1  0  0  0  0  0  0  0  0  0
    0.9911   -0.6729   -0.2683 H   0  0  0  0  0  0  0  0  0  0  0  0
    0.1495    1.2899   -0.2733 C   0  0  0  0  0  0  0  0  0  0  0  0
    1.1337    1.7644   -0.3488 H   0  0  0  0  0  0  0  0  0  0  0  0
   -0.2562    1.2028   -1.2865 H   0  0  0  0  0  0  0  0  0  0  0  0
   -0.7147    2.1056    0.5245 O   0  0  0  0  0  0  0  0  0  0  0  0
   -0.3251    2.1805    1.4242 H   0  0  0  0  0  0  0  0  0  0  0  0
    0.9145   -0.0515    1.7755 C   0  0  0  0  0  0  0  0  0  0  0  0
    0.9521    0.9971    2.4143 O   0  0  0  0  0  0  0  0  0  0  0  0
    1.4488   -1.1937    2.3378 N   0  0  0  0  0  0  0  0  0  0  0  0
    1.1874   -2.0684    1.8737 H   0  0  0  0  0  0  0  0  0  0  0  0
    1.9440   -1.2564    3.7065 C   0  0  0  0  0  0  0  0  0  0  0  0
    1.1324   -1.0680    4.4167 H   0  0  0  0  0  0  0  0  0  0  0  0
    2.3619   -2.2472    3.9098 H   0  0  0  0  0  0  0  0  0  0  0  0
    2.7321   -0.5127    3.8647 H   0  0  0  0  0  0  0  0  0  0  0  0
  1  2  1  0  0  0  0
  2  3  1  0  0  0  0
  2  4  1  0  0  0  0
  2  5  1  0  0  0  0
  5  6  2  0  0  0  0
  5  7  1  0  0  0  0
  7  8  1  0  0  0  0
  7  9  1  0  0  0  0
  9 10  1  0  0  0  0
  9 11  1  0  0  0  0
  9 16  1  0  0  0  0
 11 12  1  0  0  0  0
 11 13  1  0  0  0  0
 11 14  1  0  0  0  0
 14 15  1  0  0  0  0
 16 17  2  0  0  0  0
 16 18  1  0  0  0  0
 18 19  1  0  0  0  0
 18 20  1  0  0  0  0
 20 21  1  0  0  0  0
 20 22  1  0  0  0  0
 20 23  1  0  0  0  0
M  END
$$$$

  -OEChem-01062216093D

 23 22  0     1  0  0  0  0  0999 V2000
   -2.6432   -3.6285    1.0397 H   0  0  0  0  0  0  0  0  0  0  0  0
   -2.6603   -2.5589    0.8121 C   0  0  0  0  0  0  0  0  0  0  0  0
   -3.1639   -2.0332    1.6270 H   0  0  0  0  0  0  0  0  0  0  0  0
   -3.2208   -2.4055   -0.1133 H   0  0  0  0  0  0  0  0  0  0  0  0
   -1.2455   -2.0358    0.6551 C   0  0  0  0  0  0  0  0  0  0  0  0
   -0.2890   -2.7695    0.8594 O   0  0  0  0  0  0  0  0  0  0  0  0
   -1.0267   -0.7280    0.2755 N   0  0  0  0  0  0  0  0  0  0  0  0
   -1.8370   -0.1116    0.2474 H   0  0  0  0  0  0  0  0  0  0  0  0
    0.2939   -0.0829    0.3406 C   0  0  1  0  0  0  0  0  0  0  0  0
    0.9917   -0.6505   -0.2830 H   0  0  0  0  0  0  0  0  0  0  0  0
    0.1506    1.3118   -0.2865 C   0  0  0  0  0  0  0  0  0  0  0  0
    1.1368    1.7824   -0.3598 H   0  0  0  0  0  0  0  0  0  0  0  0
   -0.2543    1.2278   -1.3003 H   0  0  0  0  0  0  0  0  0  0  0  0
   -0.7086    2.1332    0.5113 O   0  0  0  0  0  0  0  0  0  0  0  0
   -0.3583    2.1505    1.4310 H   0  0  0  0  0  0  0  0  0  0  0  0
    0.8959   -0.0329    1.7661 C   0  0  0  0  0  0  0  0  0  0  0  0
    0.7389    0.9476    2.4897 O   0  0  0  0  0  0  0  0  0  0  0  0
    1.6865   -1.0770    2.2040 N   0  0  0  0  0  0  0  0  0  0  0  0
    1.5416   -1.9549    1.7004 H   0  0  0  0  0  0  0  0  0  0  0  0
    2.2127   -1.1501    3.5610 C   0  0  0  0  0  0  0  0  0  0  0  0
    1.3947   -1.1838    4.2882 H   0  0  0  0  0  0  0  0  0  0  0  0
    2.8217   -2.0514    3.6804 H   0  0  0  0  0  0  0  0  0  0  0  0
    2.8414   -0.2800    3.7772 H   0  0  0  0  0  0  0  0  0  0  0  0
  1  2  1  0  0  0  0
  2  3  1  0  0  0  0
  2  4  1  0  0  0  0
  2  5  1  0  0  0  0
  5  6  2  0  0  0  0
  5  7  1  0  0  0  0
  7  8  1  0  0  0  0
  7  9  1  0  0  0  0
  9 10  1  0  0  0  0
  9 11  1  0  0  0  0
  9 16  1  0  0  0  0
 11 12  1  0  0  0  0
 11 13  1  0  0  0  0
 11 14  1  0  0  0  0
 14 15  1  0  0  0  0
 16 17  2  0  0  0  0
 16 18  1  0  0  0  0
 18 19  1  0  0  0  0
 18 20  1  0  0  0  0
 20 21  1  0  0  0  0
 20 22  1  0  0  0  0
 20 23  1  0  0  0  0
M  END
$$$$

  -OEChem-01062216093D

 23 22  0     1  0  0  0  0  0999 V2000
   -2.5261   -3.6537    1.1453 H   0  0  0  0  0  0  0  0  0  0  0  0
   -2.5877   -2.5949    0.8790 C   0  0  0  0  0  0  0  0  0  0  0  0
   -3.0625   -2.0527    1.7003 H   0  0  0  0  0  0  0  0  0  0  0  0
   -3.2006   -2.4923   -0.0194 H   0  0  0  0  0  0  0  0  0  0  0  0
   -1.2000   -2.0380    0.6258 C   0  0  0  0  0  0  0  0  0  0  0  0
   -0.2192   -2.7649    0.6989 O   0  0  0  0  0  0  0  0  0  0  0  0
   -1.0351   -0.7053    0.3125 N   0  0  0  0  0  0  0  0  0  0  0  0
   -1.8440   -0.1058    0.4632 H   0  0  0  0  0  0  0  0  0  0  0  0
    0.2736   -0.0469    0.4220 C   0  0  1  0  0  0  0  0  0  0  0  0
    0.9776   -0.5974   -0.2097 H   0  0  0  0  0  0  0  0  0  0  0  0
    0.1564    1.3530   -0.1991 C   0  0  0  0  0  0  0  0  0  0  0  0
    1.1509    1.8104   -0.2232 H   0  0  0  0  0  0  0  0  0  0  0  0
   -0.1976    1.2718   -1.2321 H   0  0  0  0  0  0  0  0  0  0  0  0
   -0.7268    2.1996    0.5446 O   0  0  0  0  0  0  0  0  0  0  0  0
   -0.6143    3.1324    0.2937 H   0  0  0  0  0  0  0  0  0  0  0  0
    0.8704   -0.0658    1.8501 C   0  0  0  0  0  0  0  0  0  0  0  0
    0.4664    0.6658    2.7456 O   0  0  0  0  0  0  0  0  0  0  0  0
    1.9093   -0.9372    2.1232 N   0  0  0  0  0  0  0  0  0  0  0  0
    1.9946   -1.7151    1.4709 H   0  0  0  0  0  0  0  0  0  0  0  0
    2.4419   -1.1206    3.4677 C   0  0  0  0  0  0  0  0  0  0  0  0
    1.6716   -1.5251    4.1326 H   0  0  0  0  0  0  0  0  0  0  0  0
    3.2854   -1.8173    3.4469 H   0  0  0  0  0  0  0  0  0  0  0  0
    2.7948   -0.1673    3.8754 H   0  0  0  0  0  0  0  0  0  0  0  0
  1  2  1  0  0  0  0
  2  3  1  0  0  0  0
  2  4  1  0  0  0  0
  2  5  1  0  0  0  0
  5  6  2  0  0  0  0
  5  7  1  0  0  0  0
  7  8  1  0  0  0  0
  7  9  1  0  0  0  0
  9 10  1  0  0  0  0
  9 11  1  0  0  0  0
  9 16  1  0  0  0  0
 11 12  1  0  0  0  0
 11 13  1  0  0  0  0
 11 14  1  0  0  0  0
 14 15  1  0  0  0  0
 16 17  2  0  0  0  0
 16 18  1  0  0  0  0
 18 19  1  0  0  0  0
 18 20  1  0  0  0  0
 20 21  1  0  0  0  0
 20 22  1  0  0  0  0
 20 23  1  0  0  0  0
M  END
$$$$

  -OEChem-01062216093D

 23 22  0     1  0  0  0  0  0999 V2000
   -2.4842   -3.6439    1.1987 H   0  0  0  0  0  0  0  0  0  0  0  0
   -2.5579   -2.5851    0.9355 C   0  0  0  0  0  0  0  0  0  0  0  0
   -2.9944   -2.0428    1.7781 H   0  0  0  0  0  0  0  0  0  0  0  0
   -3.2112   -2.4821    0.0659 H   0  0  0  0  0  0  0  0  0  0  0  0
   -1.1826   -2.0290    0.6195 C   0  0  0  0  0  0  0  0  0  0  0  0
   -0.2010   -2.7575    0.6453 O   0  0  0  0  0  0  0  0  0  0  0  0
   -1.0337   -0.6985    0.2889 N   0  0  0  0  0  0  0  0  0  0  0  0
   -1.8364   -0.1061    0.4911 H   0  0  0  0  0  0  0  0  0  0  0  0
    0.2732   -0.0351    0.3907 C   0  0  1  0  0  0  0  0  0  0  0  0
    0.9755   -0.5900   -0.2385 H   0  0  0  0  0  0  0  0  0  0  0  0
    0.1673    1.3700   -0.2165 C   0  0  0  0  0  0  0  0  0  0  0  0
    1.1649    1.8201   -0.2460 H   0  0  0  0  0  0  0  0  0  0  0  0
   -0.1970    1.2990   -1.2467 H   0  0  0  0  0  0  0  0  0  0  0  0
   -0.7048    2.2146    0.5416 O   0  0  0  0  0  0  0  0  0  0  0  0
   -0.6605    3.1358    0.2327 H   0  0  0  0  0  0  0  0  0  0  0  0
    0.8609   -0.0424    1.8210 C   0  0  0  0  0  0  0  0  0  0  0  0
    0.2333    0.4035    2.7749 O   0  0  0  0  0  0  0  0  0  0  0  0
    2.0806   -0.6537    2.0537 N   0  0  0  0  0  0  0  0  0  0  0  0
    2.4265   -1.2483    1.3054 H   0  0  0  0  0  0  0  0  0  0  0  0
    2.5963   -0.8819    3.3981 C   0  0  0  0  0  0  0  0  0  0  0  0
    1.9217   -1.5353    3.9614 H   0  0  0  0  0  0  0  0  0  0  0  0
    3.5803   -1.3578    3.3491 H   0  0  0  0  0  0  0  0  0  0  0  0
    2.7000    0.0661    3.9364 H   0  0  0  0  0  0  0  0  0  0  0  0
  1  2  1  0  0  0  0
  2  3  1  0  0  0  0
  2  4  1  0  0  0  0
  2  5  1  0  0  0  0
  5  6  2  0  0  0  0
  5  7  1  0  0  0  0
  7  8  1  0  0  0  0
  7  9  1  0  0  0  0
  9 10  1  0  0  0  0
  9 11  1  0  0  0  0
  9 16  1  0  0  0  0
 11 12  1  0  0  0  0
 11 13  1  0  0  0  0
 11 14  1  0  0  0  0
 14 15  1  0  0  0  0
 16 17  2  0  0  0  0
 16 18  1  0  0  0  0
 18 19  1  0  0  0  0
 18 20  1  0  0  0  0
 20 21  1  0  0  0  0
 20 22  1  0  0  0  0
 20 23  1  0  0  0  0
M  END
$$$$

  -OEChem-01062216093D

 23 22  0     1  0  0  0  0  0999 V2000
   -2.4857   -3.6394    1.1973 H   0  0  0  0  0  0  0  0  0  0  0  0
   -2.5554   -2.5745    0.9593 C   0  0  0  0  0  0  0  0  0  0  0  0
   -2.9478   -2.0441    1.8306 H   0  0  0  0  0  0  0  0  0  0  0  0
   -3.2425   -2.4441    0.1201 H   0  0  0  0  0  0  0  0  0  0  0  0
   -1.1867   -2.0298    0.5990 C   0  0  0  0  0  0  0  0  0  0  0  0
   -0.2119   -2.7675    0.5928 O   0  0  0  0  0  0  0  0  0  0  0  0
   -1.0388   -0.7017    0.2572 N   0  0  0  0  0  0  0  0  0  0  0  0
   -1.8358   -0.1112    0.4844 H   0  0  0  0  0  0  0  0  0  0  0  0
    0.2701   -0.0420    0.3714 C   0  0  1  0  0  0  0  0  0  0  0  0
    0.9780   -0.6008   -0.2478 H   0  0  0  0  0  0  0  0  0  0  0  0
    0.1757    1.3679   -0.2234 C   0  0  0  0  0  0  0  0  0  0  0  0
    1.1745    1.8158   -0.2451 H   0  0  0  0  0  0  0  0  0  0  0  0
   -0.1854    1.3075   -1.2553 H   0  0  0  0  0  0  0  0  0  0  0  0
   -0.6978    2.2038    0.5427 O   0  0  0  0  0  0  0  0  0  0  0  0
   -0.6852    3.1198    0.2154 H   0  0  0  0  0  0  0  0  0  0  0  0
    0.8384   -0.0390    1.8091 C   0  0  0  0  0  0  0  0  0  0  0  0
    0.1133    0.1667    2.7768 O   0  0  0  0  0  0  0  0  0  0  0  0
    2.1669   -0.3621    2.0266 N   0  0  0  0  0  0  0  0  0  0  0  0
    2.6782   -0.7386    1.2342 H   0  0  0  0  0  0  0  0  0  0  0  0
    2.7178   -0.5643    3.3612 C   0  0  0  0  0  0  0  0  0  0  0  0
    2.2314   -1.4144    3.8510 H   0  0  0  0  0  0  0  0  0  0  0  0
    3.7915   -0.7658    3.3002 H   0  0  0  0  0  0  0  0  0  0  0  0
    2.5709    0.3291    3.9774 H   0  0  0  0  0  0  0  0  0  0  0  0
  1  2  1  0  0  0  0
  2  3  1  0  0  0  0
  2  4  1  0  0  0  0
  2  5  1  0  0  0  0
  5  6  2  0  0  0  0
  5  7  1  0  0  0  0
  7  8  1  0  0  0  0
  7  9  1  0  0  0  0
  9 10  1  0  0  0  0
  9 11  1  0  0  0  0
  9 16  1  0  0  0  0
 11 12  1  0  0  0  0
 11 13  1  0  0  0  0
 11 14  1  0  0  0  0
 14 15  1  0  0  0  0
 16 17  2  0  0  0  0
 16 18  1  0  0  0  0
 18 19  1  0  0  0  0
 18 20  1  0  0  0  0
 20 21  1  0  0  0  0
 20 22  1  0  0  0  0
 20 23  1  0  0  0  0
M  END
$$$$

  -OEChem-01062216093D

 23 22  0     1  0  0  0  0  0999 V2000
   -2.5057   -3.6348    1.1867 H   0  0  0  0  0  0  0  0  0  0  0  0
   -2.5663   -2.5669    0.9598 C   0  0  0  0  0  0  0  0  0  0  0  0
   -2.9329   -2.0393    1.8439 H   0  0  0  0  0  0  0  0  0  0  0  0
   -3.2693   -2.4196    0.1366 H   0  0  0  0  0  0  0  0  0  0  0  0
   -1.1982   -2.0366    0.5764 C   0  0  0  0  0  0  0  0  0  0  0  0
   -0.2334   -2.7865    0.5436 O   0  0  0  0  0  0  0  0  0  0  0  0
   -1.0428   -0.7098    0.2320 N   0  0  0  0  0  0  0  0  0  0  0  0
   -1.8353   -0.1180    0.4700 H   0  0  0  0  0  0  0  0  0  0  0  0
    0.2691   -0.0581    0.3649 C   0  0  1  0  0  0  0  0  0  0  0  0
    0.9840   -0.6179   -0.2456 H   0  0  0  0  0  0  0  0  0  0  0  0
    0.1799    1.3564   -0.2180 C   0  0  0  0  0  0  0  0  0  0  0  0
    1.1780    1.8064   -0.2316 H   0  0  0  0  0  0  0  0  0  0  0  0
   -0.1771    1.3054   -1.2520 H   0  0  0  0  0  0  0  0  0  0  0  0
   -0.6997    2.1807    0.5544 O   0  0  0  0  0  0  0  0  0  0  0  0
   -0.7098    3.0945    0.2202 H   0  0  0  0  0  0  0  0  0  0  0  0
    0.8227   -0.0502    1.8085 C   0  0  0  0  0  0  0  0  0  0  0  0
    0.0694   -0.0564    2.7773 O   0  0  0  0  0  0  0  0  0  0  0  0
    2.1900   -0.0705    2.0248 N   0  0  0  0  0  0  0  0  0  0  0  0
    2.7844   -0.2169    1.2152 H   0  0  0  0  0  0  0  0  0  0  0  0
    2.7768   -0.2001    3.3529 C   0  0  0  0  0  0  0  0  0  0  0  0
    2.4904   -1.1550    3.8062 H   0  0  0  0  0  0  0  0  0  0  0  0
    3.8682   -0.1593    3.2896 H   0  0  0  0  0  0  0  0  0  0  0  0
    2.4396    0.6142    4.0028 H   0  0  0  0  0  0  0  0  0  0  0  0
  1  2  1  0  0  0  0
  2  3  1  0  0  0  0
  2  4  1  0  0  0  0
  2  5  1  0  0  0  0
  5  6  2  0  0  0  0
  5  7  1  0  0  0  0
  7  8  1  0  0  0  0
  7  9  1  0  0  0  0
  9 10  1  0  0  0  0
  9 11  1  0  0  0  0
  9 16  1  0  0  0  0
 11 12  1  0  0  0  0
 11 13  1  0  0  0  0
 11 14  1  0  0  0  0
 14 15  1  0  0  0  0
 16 17  2  0  0  0  0
 16 18  1  0  0  0  0
 18 19  1  0  0  0  0
 18 20  1  0  0  0  0
 20 21  1  0  0  0  0
 20 22  1  0  0  0  0
 20 23  1  0  0  0  0
M  END
$$$$

  -OEChem-01062216093D

 23 22  0     1  0  0  0  0  0999 V2000
   -2.5370   -3.6320    1.1565 H   0  0  0  0  0  0  0  0  0  0  0  0
   -2.5810   -2.5579    0.9563 C   0  0  0  0  0  0  0  0  0  0  0  0
   -2.9147   -2.0447    1.8617 H   0  0  0  0  0  0  0  0  0  0  0  0
   -3.3004   -2.3767    0.1544 H   0  0  0  0  0  0  0  0  0  0  0  0
   -1.2116   -2.0459    0.5529 C   0  0  0  0  0  0  0  0  0  0  0  0
   -0.2600   -2.8106    0.4926 O   0  0  0  0  0  0  0  0  0  0  0  0
   -1.0432   -0.7197    0.2115 N   0  0  0  0  0  0  0  0  0  0  0  0
   -1.8317   -0.1241    0.4529 H   0  0  0  0  0  0  0  0  0  0  0  0
    0.2732   -0.0790    0.3617 C   0  0  1  0  0  0  0  0  0  0  0  0
    0.9926   -0.6378   -0.2447 H   0  0  0  0  0  0  0  0  0  0  0  0
    0.1834    1.3401   -0.2097 C   0  0  0  0  0  0  0  0  0  0  0  0
    1.1793    1.7949   -0.2178 H   0  0  0  0  0  0  0  0  0  0  0  0
   -0.1716    1.2973   -1.2447 H   0  0  0  0  0  0  0  0  0  0  0  0
   -0.7021    2.1507    0.5710 O   0  0  0  0  0  0  0  0  0  0  0  0
   -0.7299    3.0639    0.2359 H   0  0  0  0  0  0  0  0  0  0  0  0
    0.8195   -0.0707    1.8097 C   0  0  0  0  0  0  0  0  0  0  0  0
    0.0834   -0.2749    2.7703 O   0  0  0  0  0  0  0  0  0  0  0  0
    2.1551    0.2098    2.0451 N   0  0  0  0  0  0  0  0  0  0  0  0
    2.7655    0.2925    1.2387 H   0  0  0  0  0  0  0  0  0  0  0  0
    2.7504    0.1759    3.3756 C   0  0  0  0  0  0  0  0  0  0  0  0
    2.6826   -0.8316    3.7995 H   0  0  0  0  0  0  0  0  0  0  0  0
    3.8055    0.4609    3.3257 H   0  0  0  0  0  0  0  0  0  0  0  0
    2.2364    0.8746    4.0441 H   0  0  0  0  0  0  0  0  0  0  0  0
  1  2  1  0  0  0  0
  2  3  1  0  0  0  0
  2  4  1  0  0  0  0
  2  5  1  0  0  0  0
  5  6  2  0  0  0  0
  5  7  1  0  0  0  0
  7  8  1  0  0  0  0
  7  9  1  0  0  0  0
  9 10  1  0  0  0  0
  9 11  1  0  0  0  0
  9 16  1  0  0  0  0
 11 12  1  0  0  0  0
 11 13  1  0  0  0  0
 11 14  1  0  0  0  0
 14 15  1  0  0  0  0
 16 17  2  0  0  0  0
 16 18  1  0  0  0  0
 18 19  1  0  0  0  0
 18 20  1  0  0  0  0
 20 21  1  0  0  0  0
 20 22  1  0  0  0  0
 20 23  1  0  0  0  0
M  END
$$$$

  -OEChem-01062216093D

 23 22  0     1  0  0  0  0  0999 V2000
   -2.5752   -3.6302    1.1007 H   0  0  0  0  0  0  0  0  0  0  0  0
   -2.5913   -2.5461    0.9581 C   0  0  0  0  0  0  0  0  0  0  0  0
   -2.8293   -2.0701    1.9126 H   0  0  0  0  0  0  0  0  0  0  0  0
   -3.3649   -2.2963    0.2285 H   0  0  0  0  0  0  0  0  0  0  0  0
   -1.2384   -2.0658    0.4690 C   0  0  0  0  0  0  0  0  0  0  0  0
   -0.3473   -2.8665    0.2276 O   0  0  0  0  0  0  0  0  0  0  0  0
   -1.0371   -0.7321    0.1756 N   0  0  0  0  0  0  0  0  0  0  0  0
   -1.8065   -0.1399    0.4775 H   0  0  0  0  0  0  0  0  0  0  0  0
    0.2888   -0.1175    0.3731 C   0  0  1  0  0  0  0  0  0  0  0  0
    0.9406   -0.4925   -0.4215 H   0  0  0  0  0  0  0  0  0  0  0  0
    0.1217    1.3944    0.1744 C   0  0  0  0  0  0  0  0  0  0  0  0
    1.1021    1.8810    0.1901 H   0  0  0  0  0  0  0  0  0  0  0  0
   -0.3278    1.5887   -0.8053 H   0  0  0  0  0  0  0  0  0  0  0  0
   -0.7051    1.9526    1.2018 O   0  0  0  0  0  0  0  0  0  0  0  0
   -0.7708    2.9199    1.1143 H   0  0  0  0  0  0  0  0  0  0  0  0
    1.0193   -0.4344    1.7067 C   0  0  0  0  0  0  0  0  0  0  0  0
    0.4565   -1.0040    2.6362 O   0  0  0  0  0  0  0  0  0  0  0  0
    2.2704    0.1095    1.9510 N   0  0  0  0  0  0  0  0  0  0  0  0
    2.7317    0.5915    1.1871 H   0  0  0  0  0  0  0  0  0  0  0  0
    2.9888   -0.0690    3.2072 C   0  0  0  0  0  0  0  0  0  0  0  0
    3.1647   -1.1326    3.3997 H   0  0  0  0  0  0  0  0  0  0  0  0
    3.9565    0.4397    3.1653 H   0  0  0  0  0  0  0  0  0  0  0  0
    2.4145    0.3498    4.0404 H   0  0  0  0  0  0  0  0  0  0  0  0
  1  2  1  0  0  0  0
  2  3  1  0  0  0  0
  2  4  1  0  0  0  0
  2  5  1  0  0  0  0
  5  6  2  0  0  0  0
  5  7  1  0  0  0  0
  7  8  1  0  0  0  0
  7  9  1  0  0  0  0
  9 10  1  0  0  0  0
  9 11  1  0  0  0  0
  9 16  1  0  0  0  0
 11 12  1  0  0  0  0
 11 13  1  0  0  0  0
 11 14  1  0  0  0  0
 14 15  1  0  0  0  0
 16 17  2  0  0  0  0
 16 18  1  0  0  0  0
 18 19  1  0  0  0  0
 18 20  1  0  0  0  0
 20 21  1  0  0  0  0
 20 22  1  0  0  0  0
 20 23  1  0  0  0  0
M  END
$$$$

  -OEChem-01062216093D

 23 22  0     1  0  0  0  0  0999 V2000
   -2.5771   -3.6159    1.1216 H   0  0  0  0  0  0  0  0  0  0  0  0
   -2.5834   -2.5315    0.9817 C   0  0  0  0  0  0  0  0  0  0  0  0
   -2.7798   -2.0554    1.9455 H   0  0  0  0  0  0  0  0  0  0  0  0
   -3.3789   -2.2687    0.2808 H   0  0  0  0  0  0  0  0  0  0  0  0
   -1.2423   -2.0689    0.4459 C   0  0  0  0  0  0  0  0  0  0  0  0
   -0.3849   -2.8821    0.1362 O   0  0  0  0  0  0  0  0  0  0  0  0
   -1.0258   -0.7346    0.1673 N   0  0  0  0  0  0  0  0  0  0  0  0
   -1.7889   -0.1405    0.4805 H   0  0  0  0  0  0  0  0  0  0  0  0
    0.3034   -0.1262    0.3708 C   0  0  1  0  0  0  0  0  0  0  0  0
    0.9555   -0.4984   -0.4253 H   0  0  0  0  0  0  0  0  0  0  0  0
    0.1239    1.3845    0.1649 C   0  0  0  0  0  0  0  0  0  0  0  0
    1.0974    1.8850    0.1731 H   0  0  0  0  0  0  0  0  0  0  0  0
   -0.3295    1.5675   -0.8153 H   0  0  0  0  0  0  0  0  0  0  0  0
   -0.7115    1.9360    1.1895 O   0  0  0  0  0  0  0  0  0  0  0  0
   -0.8179    2.8973    1.0774 H   0  0  0  0  0  0  0  0  0  0  0  0
    1.0472   -0.4470    1.7008 C   0  0  0  0  0  0  0  0  0  0  0  0
    0.5961   -1.2246    2.5344 O   0  0  0  0  0  0  0  0  0  0  0  0
    2.1369    0.3182    2.0876 N   0  0  0  0  0  0  0  0  0  0  0  0
    2.4620    1.0319    1.4448 H   0  0  0  0  0  0  0  0  0  0  0  0
    2.7962    0.1848    3.3817 C   0  0  0  0  0  0  0  0  0  0  0  0
    3.1661   -0.8367    3.5199 H   0  0  0  0  0  0  0  0  0  0  0  0
    3.6461    0.8705    3.4457 H   0  0  0  0  0  0  0  0  0  0  0  0
    2.0995    0.4206    4.1930 H   0  0  0  0  0  0  0  0  0  0  0  0
  1  2  1  0  0  0  0
  2  3  1  0  0  0  0
  2  4  1  0  0  0  0
  2  5  1  0  0  0  0
  5  6  2  0  0  0  0
  5  7  1  0  0  0  0
  7  8  1  0  0  0  0
  7  9  1  0  0  0  0
  9 10  1  0  0  0  0
  9 11  1  0  0  0  0
  9 16  1  0  0  0  0
 11 12  1  0  0  0  0
 11 13  1  0  0  0  0
 11 14  1  0  0  0  0
 14 15  1  0  0  0  0
 16 17  2  0  0  0  0
 16 18  1  0  0  0  0
 18 19  1  0  0  0  0
 18 20  1  0  0  0  0
 20 21  1  0  0  0  0
 20 22  1  0  0  0  0
 20 23  1  0  0  0  0
M  END
$$$$

  -OEChem-01062216093D

 23 22  0     1  0  0  0  0  0999 V2000
   -2.5787   -3.6097    1.1437 H   0  0  0  0  0  0  0  0  0  0  0  0
   -2.5780   -2.5248    1.0056 C   0  0  0  0  0  0  0  0  0  0  0  0
   -2.7599   -2.0487    1.9721 H   0  0  0  0  0  0  0  0  0  0  0  0
   -3.3792   -2.2550    0.3137 H   0  0  0  0  0  0  0  0  0  0  0  0
   -1.2392   -2.0729    0.4545 C   0  0  0  0  0  0  0  0  0  0  0  0
   -0.4153   -2.8953    0.0870 O   0  0  0  0  0  0  0  0  0  0  0  0
   -1.0140   -0.7387    0.1832 N   0  0  0  0  0  0  0  0  0  0  0  0
   -1.7796   -0.1444    0.4890 H   0  0  0  0  0  0  0  0  0  0  0  0
    0.3124   -0.1202    0.3819 C   0  0  1  0  0  0  0  0  0  0  0  0
    0.9634   -0.5017   -0.4107 H   0  0  0  0  0  0  0  0  0  0  0  0
    0.1329    1.3858    0.1417 C   0  0  0  0  0  0  0  0  0  0  0  0
    1.1055    1.8880    0.1356 H   0  0  0  0  0  0  0  0  0  0  0  0
   -0.3192    1.5428   -0.8435 H   0  0  0  0  0  0  0  0  0  0  0  0
   -0.7092    1.9611    1.1480 O   0  0  0  0  0  0  0  0  0  0  0  0
   -0.8677    2.9067    0.9746 H   0  0  0  0  0  0  0  0  0  0  0  0
    1.0723   -0.4325    1.7075 C   0  0  0  0  0  0  0  0  0  0  0  0
    0.8382   -1.4223    2.3889 O   0  0  0  0  0  0  0  0  0  0  0  0
    1.9428    0.4990    2.2533 N   0  0  0  0  0  0  0  0  0  0  0  0
    1.9834    1.4066    1.8027 H   0  0  0  0  0  0  0  0  0  0  0  0
    2.5577    0.3482    3.5677 C   0  0  0  0  0  0  0  0  0  0  0  0
    3.1267   -0.5862    3.6206 H   0  0  0  0  0  0  0  0  0  0  0  0
    3.2433    1.1785    3.7624 H   0  0  0  0  0  0  0  0  0  0  0  0
    1.7916    0.3388    4.3502 H   0  0  0  0  0  0  0  0  0  0  0  0
  1  2  1  0  0  0  0
  2  3  1  0  0  0  0
  2  4  1  0  0  0  0
  2  5  1  0  0  0  0
  5  6  2  0  0  0  0
  5  7  1  0  0  0  0
  7  8  1  0  0  0  0
  7  9  1  0  0  0  0
  9 10  1  0  0  0  0
  9 11  1  0  0  0  0
  9 16  1  0  0  0  0
 11 12  1  0  0  0  0
 11 13  1  0  0  0  0
 11 14  1  0  0  0  0
 14 15  1  0  0  0  0
 16 17  2  0  0  0  0
 16 18  1  0  0  0  0
 18 19  1  0  0  0  0
 18 20  1  0  0  0  0
 20 21  1  0  0  0  0
 20 22  1  0  0  0  0
 20 23  1  0  0  0  0
M  END
$$$$

  -OEChem-01062216093D

 23 22  0     1  0  0  0  0  0999 V2000
   -2.5788   -3.6024    1.1602 H   0  0  0  0  0  0  0  0  0  0  0  0
   -2.5710   -2.5169    1.0265 C   0  0  0  0  0  0  0  0  0  0  0  0
   -2.7437   -2.0437    1.9960 H   0  0  0  0  0  0  0  0  0  0  0  0
   -3.3752   -2.2388    0.3414 H   0  0  0  0  0  0  0  0  0  0  0  0
   -1.2325   -2.0732    0.4681 C   0  0  0  0  0  0  0  0  0  0  0  0
   -0.4248   -2.9035    0.0874 O   0  0  0  0  0  0  0  0  0  0  0  0
   -1.0040   -0.7409    0.1905 N   0  0  0  0  0  0  0  0  0  0  0  0
   -1.7783   -0.1449    0.4694 H   0  0  0  0  0  0  0  0  0  0  0  0
    0.3158   -0.1094    0.3936 C   0  0  1  0  0  0  0  0  0  0  0  0
    0.9769   -0.5046   -0.3842 H   0  0  0  0  0  0  0  0  0  0  0  0
    0.1518    1.3927    0.1203 C   0  0  0  0  0  0  0  0  0  0  0  0
    1.1304    1.8841    0.1200 H   0  0  0  0  0  0  0  0  0  0  0  0
   -0.2820    1.5313   -0.8758 H   0  0  0  0  0  0  0  0  0  0  0  0
   -0.7012    2.0008    1.0986 O   0  0  0  0  0  0  0  0  0  0  0  0
   -0.8782    2.9329    0.8741 H   0  0  0  0  0  0  0  0  0  0  0  0
    1.0609   -0.4091    1.7291 C   0  0  0  0  0  0  0  0  0  0  0  0
    1.1196   -1.5273    2.2197 O   0  0  0  0  0  0  0  0  0  0  0  0
    1.6622    0.6168    2.4409 N   0  0  0  0  0  0  0  0  0  0  0  0
    1.3925    1.5573    2.1669 H   0  0  0  0  0  0  0  0  0  0  0  0
    2.2726    0.4281    3.7526 C   0  0  0  0  0  0  0  0  0  0  0  0
    3.0559   -0.3360    3.7054 H   0  0  0  0  0  0  0  0  0  0  0  0
    2.7263    1.3627    4.0962 H   0  0  0  0  0  0  0  0  0  0  0  0
    1.5202    0.1163    4.4846 H   0  0  0  0  0  0  0  0  0  0  0  0
  1  2  1  0  0  0  0
  2  3  1  0  0  0  0
  2  4  1  0  0  0  0
  2  5  1  0  0  0  0
  5  6  2  0  0  0  0
  5  7  1  0  0  0  0
  7  8  1  0  0  0  0
  7  9  1  0  0  0  0
  9 10  1  0  0  0  0
  9 11  1  0  0  0  0
  9 16  1  0  0  0  0
 11 12  1  0  0  0  0
 11 13  1  0  0  0  0
 11 14  1  0  0  0  0
 14 15  1  0  0  0  0
 16 17  2  0  0  0  0
 16 18  1  0  0  0  0
 18 19  1  0  0  0  0
 18 20  1  0  0  0  0
 20 21  1  0  0  0  0
 20 22  1  0  0  0  0
 20 23  1  0  0  0  0
M  END
$$$$

  -OEChem-01062216093D

 23 22  0     1  0  0  0  0  0999 V2000
   -2.6366   -3.5892    1.1617 H   0  0  0  0  0  0  0  0  0  0  0  0
   -2.6244   -2.5129    0.9678 C   0  0  0  0  0  0  0  0  0  0  0  0
   -2.8958   -1.9888    1.8873 H   0  0  0  0  0  0  0  0  0  0  0  0
   -3.3596   -2.2852    0.1924 H   0  0  0  0  0  0  0  0  0  0  0  0
   -1.2419   -2.0827    0.5151 C   0  0  0  0  0  0  0  0  0  0  0  0
   -0.4059   -2.9253    0.2444 O   0  0  0  0  0  0  0  0  0  0  0  0
   -0.9981   -0.7551    0.2284 N   0  0  0  0  0  0  0  0  0  0  0  0
   -1.7851   -0.1496    0.4433 H   0  0  0  0  0  0  0  0  0  0  0  0
    0.3167   -0.1123    0.4268 C   0  0  1  0  0  0  0  0  0  0  0  0
    0.9833   -0.5141   -0.3430 H   0  0  0  0  0  0  0  0  0  0  0  0
    0.1506    1.3870    0.1352 C   0  0  0  0  0  0  0  0  0  0  0  0
    1.1311    1.8750    0.1407 H   0  0  0  0  0  0  0  0  0  0  0  0
   -0.2731    1.5142   -0.8668 H   0  0  0  0  0  0  0  0  0  0  0  0
   -0.7078    2.0147    1.0992 O   0  0  0  0  0  0  0  0  0  0  0  0
   -0.8755    2.9444    0.8563 H   0  0  0  0  0  0  0  0  0  0  0  0
    1.0522   -0.3968    1.7670 C   0  0  0  0  0  0  0  0  0  0  0  0
    1.4536   -1.5099    2.0705 O   0  0  0  0  0  0  0  0  0  0  0  0
    1.3677    0.6437    2.6239 N   0  0  0  0  0  0  0  0  0  0  0  0
    0.8740    1.5167    2.4474 H   0  0  0  0  0  0  0  0  0  0  0  0
    2.0109    0.4509    3.9182 C   0  0  0  0  0  0  0  0  0  0  0  0
    2.9808   -0.0426    3.7949 H   0  0  0  0  0  0  0  0  0  0  0  0
    2.1770    1.4166    4.4050 H   0  0  0  0  0  0  0  0  0  0  0  0
    1.3828   -0.1648    4.5705 H   0  0  0  0  0  0  0  0  0  0  0  0
  1  2  1  0  0  0  0
  2  3  1  0  0  0  0
  2  4  1  0  0  0  0
  2  5  1  0  0  0  0
  5  6  2  0  0  0  0
  5  7  1  0  0  0  0
  7  8  1  0  0  0  0
  7  9  1  0  0  0  0
  9 10  1  0  0  0  0
  9 11  1  0  0  0  0
  9 16  1  0  0  0  0
 11 12  1  0  0  0  0
 11 13  1  0  0  0  0
 11 14  1  0  0  0  0
 14 15  1  0  0  0  0
 16 17  2  0  0  0  0
 16 18  1  0  0  0  0
 18 19  1  0  0  0  0
 18 20  1  0  0  0  0
 20 21  1  0  0  0  0
 20 22  1  0  0  0  0
 20 23  1  0  0  0  0
M  END
$$$$

  -OEChem-01062216093D

 23 22  0     1  0  0  0  0  0999 V2000
   -2.7622   -3.5943    1.0722 H   0  0  0  0  0  0  0  0  0  0  0  0
   -2.7247   -2.5322    0.8141 C   0  0  0  0  0  0  0  0  0  0  0  0
   -3.1681   -1.9574    1.6305 H   0  0  0  0  0  0  0  0  0  0  0  0
   -3.3059   -2.3706   -0.0968 H   0  0  0  0  0  0  0  0  0  0  0  0
   -1.2868   -2.1003    0.5948 C   0  0  0  0  0  0  0  0  0  0  0  0
   -0.4057   -2.9377    0.5847 O   0  0  0  0  0  0  0  0  0  0  0  0
   -1.0136   -0.7795    0.3024 N   0  0  0  0  0  0  0  0  0  0  0  0
   -1.8132   -0.1593    0.3918 H   0  0  0  0  0  0  0  0  0  0  0  0
    0.3010   -0.1314    0.4858 C   0  0  1  0  0  0  0  0  0  0  0  0
    0.9622   -0.5377   -0.2868 H   0  0  0  0  0  0  0  0  0  0  0  0
    0.1275    1.3652    0.1816 C   0  0  0  0  0  0  0  0  0  0  0  0
    1.1088    1.8516    0.1834 H   0  0  0  0  0  0  0  0  0  0  0  0
   -0.2962    1.4830   -0.8213 H   0  0  0  0  0  0  0  0  0  0  0  0
   -0.7267    2.0102    1.1397 O   0  0  0  0  0  0  0  0  0  0  0  0
   -0.8600    2.9467    0.9014 H   0  0  0  0  0  0  0  0  0  0  0  0
    1.0458   -0.4011    1.8207 C   0  0  0  0  0  0  0  0  0  0  0  0
    1.7835   -1.3666    1.9536 O   0  0  0  0  0  0  0  0  0  0  0  0
    1.0937    0.5711    2.8038 N   0  0  0  0  0  0  0  0  0  0  0  0
    0.4544    1.3556    2.6826 H   0  0  0  0  0  0  0  0  0  0  0  0
    1.8137    0.4201    4.0621 C   0  0  0  0  0  0  0  0  0  0  0  0
    2.8843    0.2830    3.8770 H   0  0  0  0  0  0  0  0  0  0  0  0
    1.6824    1.3120    4.6821 H   0  0  0  0  0  0  0  0  0  0  0  0
    1.4378   -0.4464    4.6164 H   0  0  0  0  0  0  0  0  0  0  0  0
  1  2  1  0  0  0  0
  2  3  1  0  0  0  0
  2  4  1  0  0  0  0
  2  5  1  0  0  0  0
  5  6  2  0  0  0  0
  5  7  1  0  0  0  0
  7  8  1  0  0  0  0
  7  9  1  0  0  0  0
  9 10  1  0  0  0  0
  9 11  1  0  0  0  0
  9 16  1  0  0  0  0
 11 12  1  0  0  0  0
 11 13  1  0  0  0  0
 11 14  1  0  0  0  0
 14 15  1  0  0  0  0
 16 17  2  0  0  0  0
 16 18  1  0  0  0  0
 18 19  1  0  0  0  0
 18 20  1  0  0  0  0
 20 21  1  0  0  0  0
 20 22  1  0  0  0  0
 20 23  1  0  0  0  0
M  END
$$$$

  -OEChem-01062216093D

 23 22  0     1  0  0  0  0  0999 V2000
   -2.8102   -3.6210    0.9638 H   0  0  0  0  0  0  0  0  0  0  0  0
   -2.7633   -2.5529    0.7327 C   0  0  0  0  0  0  0  0  0  0  0  0
   -3.2587   -1.9984    1.5332 H   0  0  0  0  0  0  0  0  0  0  0  0
   -3.2887   -2.3728   -0.2082 H   0  0  0  0  0  0  0  0  0  0  0  0
   -1.3174   -2.1096    0.6124 C   0  0  0  0  0  0  0  0  0  0  0  0
   -0.4266   -2.9289    0.7308 O   0  0  0  0  0  0  0  0  0  0  0  0
   -1.0344   -0.7909    0.3204 N   0  0  0  0  0  0  0  0  0  0  0  0
   -1.8345   -0.1654    0.3450 H   0  0  0  0  0  0  0  0  0  0  0  0
    0.2835   -0.1533    0.5101 C   0  0  1  0  0  0  0  0  0  0  0  0
    0.9444   -0.5618   -0.2617 H   0  0  0  0  0  0  0  0  0  0  0  0
    0.1311    1.3470    0.2180 C   0  0  0  0  0  0  0  0  0  0  0  0
    1.1207    1.8162    0.2317 H   0  0  0  0  0  0  0  0  0  0  0  0
   -0.2838    1.4802   -0.7867 H   0  0  0  0  0  0  0  0  0  0  0  0
   -0.7169    2.0010    1.1759 O   0  0  0  0  0  0  0  0  0  0  0  0
   -0.7945    2.9508    0.9679 H   0  0  0  0  0  0  0  0  0  0  0  0
    1.0109   -0.4354    1.8486 C   0  0  0  0  0  0  0  0  0  0  0  0
    1.9510   -1.2172    1.8930 O   0  0  0  0  0  0  0  0  0  0  0  0
    0.8054    0.3854    2.9423 N   0  0  0  0  0  0  0  0  0  0  0  0
    0.1050    1.1169    2.8263 H   0  0  0  0  0  0  0  0  0  0  0  0
    1.5707    0.3058    4.1797 C   0  0  0  0  0  0  0  0  0  0  0  0
    2.6196    0.5621    3.9983 H   0  0  0  0  0  0  0  0  0  0  0  0
    1.1656    1.0021    4.9201 H   0  0  0  0  0  0  0  0  0  0  0  0
    1.5216   -0.7064    4.5952 H   0  0  0  0  0  0  0  0  0  0  0  0
  1  2  1  0  0  0  0
  2  3  1  0  0  0  0
  2  4  1  0  0  0  0
  2  5  1  0  0  0  0
  5  6  2  0  0  0  0
  5  7  1  0  0  0  0
  7  8  1  0  0  0  0
  7  9  1  0  0  0  0
  9 10  1  0  0  0  0
  9 11  1  0  0  0  0
  9 16  1  0  0  0  0
 11 12  1  0  0  0  0
 11 13  1  0  0  0  0
 11 14  1  0  0  0  0
 14 15  1  0  0  0  0
 16 17  2  0  0  0  0
 16 18  1  0  0  0  0
 18 19  1  0  0  0  0
 18 20  1  0  0  0  0
 20 21  1  0  0  0  0
 20 22  1  0  0  0  0
 20 23  1  0  0  0  0
M  END
$$$$

  -OEChem-01062216093D

 23 22  0     1  0  0  0  0  0999 V2000
   -2.8203   -3.6386    0.9275 H   0  0  0  0  0  0  0  0  0  0  0  0
   -2.7759   -2.5723    0.6878 C   0  0  0  0  0  0  0  0  0  0  0  0
   -3.3074   -2.0157    1.4634 H   0  0  0  0  0  0  0  0  0  0  0  0
   -3.2671   -2.4073   -0.2741 H   0  0  0  0  0  0  0  0  0  0  0  0
   -1.3310   -2.1147    0.6177 C   0  0  0  0  0  0  0  0  0  0  0  0
   -0.4358   -2.9195    0.7939 O   0  0  0  0  0  0  0  0  0  0  0  0
   -1.0466   -0.7965    0.3245 N   0  0  0  0  0  0  0  0  0  0  0  0
   -1.8455   -0.1691    0.3159 H   0  0  0  0  0  0  0  0  0  0  0  0
    0.2762   -0.1670    0.5075 C   0  0  1  0  0  0  0  0  0  0  0  0
    0.9297   -0.5686   -0.2742 H   0  0  0  0  0  0  0  0  0  0  0  0
    0.1306    1.3386    0.2475 C   0  0  0  0  0  0  0  0  0  0  0  0
    1.1236    1.8007    0.2611 H   0  0  0  0  0  0  0  0  0  0  0  0
   -0.2953    1.4976   -0.7488 H   0  0  0  0  0  0  0  0  0  0  0  0
   -0.7006    1.9741    1.2320 O   0  0  0  0  0  0  0  0  0  0  0  0
   -0.7417    2.9352    1.0718 H   0  0  0  0  0  0  0  0  0  0  0  0
    1.0039   -0.4594    1.8408 C   0  0  0  0  0  0  0  0  0  0  0  0
    2.0816   -1.0403    1.8397 O   0  0  0  0  0  0  0  0  0  0  0  0
    0.5870    0.1511    3.0092 N   0  0  0  0  0  0  0  0  0  0  0  0
   -0.1801    0.8142    2.9095 H   0  0  0  0  0  0  0  0  0  0  0  0
    1.3327    0.1007    4.2596 C   0  0  0  0  0  0  0  0  0  0  0  0
    2.3042    0.5931    4.1475 H   0  0  0  0  0  0  0  0  0  0  0  0
    0.7746    0.6073    5.0526 H   0  0  0  0  0  0  0  0  0  0  0  0
    1.4970   -0.9383    4.5645 H   0  0  0  0  0  0  0  0  0  0  0  0
  1  2  1  0  0  0  0
  2  3  1  0  0  0  0
  2  4  1  0  0  0  0
  2  5  1  0  0  0  0
  5  6  2  0  0  0  0
  5  7  1  0  0  0  0
  7  8  1  0  0  0  0
  7  9  1  0  0  0  0
  9 10  1  0  0  0  0
  9 11  1  0  0  0  0
  9 16  1  0  0  0  0
 11 12  1  0  0  0  0
 11 13  1  0  0  0  0
 11 14  1  0  0  0  0
 14 15  1  0  0  0  0
 16 17  2  0  0  0  0
 16 18  1  0  0  0  0
 18 19  1  0  0  0  0
 18 20  1  0  0  0  0
 20 21  1  0  0  0  0
 20 22  1  0  0  0  0
 20 23  1  0  0  0  0
M  END
$$$$

  -OEChem-01062216093D

 23 22  0     1  0  0  0  0  0999 V2000
   -2.8253   -3.6433    0.9144 H   0  0  0  0  0  0  0  0  0  0  0  0
   -2.7798   -2.5785    0.6685 C   0  0  0  0  0  0  0  0  0  0  0  0
   -3.3215   -2.0180    1.4340 H   0  0  0  0  0  0  0  0  0  0  0  0
   -3.2601   -2.4205   -0.3001 H   0  0  0  0  0  0  0  0  0  0  0  0
   -1.3354   -2.1179    0.6120 C   0  0  0  0  0  0  0  0  0  0  0  0
   -0.4383   -2.9171    0.8072 O   0  0  0  0  0  0  0  0  0  0  0  0
   -1.0498   -0.8008    0.3153 N   0  0  0  0  0  0  0  0  0  0  0  0
   -1.8463   -0.1708    0.2902 H   0  0  0  0  0  0  0  0  0  0  0  0
    0.2770   -0.1783    0.4925 C   0  0  1  0  0  0  0  0  0  0  0  0
    0.9258   -0.5724   -0.2967 H   0  0  0  0  0  0  0  0  0  0  0  0
    0.1310    1.3301    0.2632 C   0  0  0  0  0  0  0  0  0  0  0  0
    1.1243    1.7917    0.2759 H   0  0  0  0  0  0  0  0  0  0  0  0
   -0.3072    1.5130   -0.7236 H   0  0  0  0  0  0  0  0  0  0  0  0
   -0.6872    1.9358    1.2762 O   0  0  0  0  0  0  0  0  0  0  0  0
   -0.6992    2.9048    1.1688 H   0  0  0  0  0  0  0  0  0  0  0  0
    1.0089   -0.4725    1.8208 C   0  0  0  0  0  0  0  0  0  0  0  0
    2.1795   -0.8325    1.8068 O   0  0  0  0  0  0  0  0  0  0  0  0
    0.4321   -0.1175    3.0265 N   0  0  0  0  0  0  0  0  0  0  0  0
   -0.4275    0.4224    2.9583 H   0  0  0  0  0  0  0  0  0  0  0  0
    1.1394   -0.1705    4.2988 C   0  0  0  0  0  0  0  0  0  0  0  0
    1.9863    0.5233    4.2963 H   0  0  0  0  0  0  0  0  0  0  0  0
    0.4666    0.1032    5.1168 H   0  0  0  0  0  0  0  0  0  0  0  0
    1.5134   -1.1827    4.4858 H   0  0  0  0  0  0  0  0  0  0  0  0
  1  2  1  0  0  0  0
  2  3  1  0  0  0  0
  2  4  1  0  0  0  0
  2  5  1  0  0  0  0
  5  6  2  0  0  0  0
  5  7  1  0  0  0  0
  7  8  1  0  0  0  0
  7  9  1  0  0  0  0
  9 10  1  0  0  0  0
  9 11  1  0  0  0  0
  9 16  1  0  0  0  0
 11 12  1  0  0  0  0
 11 13  1  0  0  0  0
 11 14  1  0  0  0  0
 14 15  1  0  0  0  0
 16 17  2  0  0  0  0
 16 18  1  0  0  0  0
 18 19  1  0  0  0  0
 18 20  1  0  0  0  0
 20 21  1  0  0  0  0
 20 22  1  0  0  0  0
 20 23  1  0  0  0  0
M  END
$$$$

  -OEChem-01062216093D

 23 22  0     1  0  0  0  0  0999 V2000
   -2.8384   -3.6413    0.9045 H   0  0  0  0  0  0  0  0  0  0  0  0
   -2.7884   -2.5788    0.6493 C   0  0  0  0  0  0  0  0  0  0  0  0
   -3.3439   -2.0110    1.3994 H   0  0  0  0  0  0  0  0  0  0  0  0
   -3.2514   -2.4301   -0.3291 H   0  0  0  0  0  0  0  0  0  0  0  0
   -1.3433   -2.1185    0.6129 C   0  0  0  0  0  0  0  0  0  0  0  0
   -0.4483   -2.9133    0.8356 O   0  0  0  0  0  0  0  0  0  0  0  0
   -1.0528   -0.8043    0.3085 N   0  0  0  0  0  0  0  0  0  0  0  0
   -1.8465   -0.1722    0.2558 H   0  0  0  0  0  0  0  0  0  0  0  0
    0.2770   -0.1844    0.4769 C   0  0  1  0  0  0  0  0  0  0  0  0
    0.9211   -0.5732   -0.3185 H   0  0  0  0  0  0  0  0  0  0  0  0
    0.1264    1.3249    0.2665 C   0  0  0  0  0  0  0  0  0  0  0  0
    1.1186    1.7892    0.2760 H   0  0  0  0  0  0  0  0  0  0  0  0
   -0.3236    1.5221   -0.7121 H   0  0  0  0  0  0  0  0  0  0  0  0
   -0.6807    1.9068    1.3007 O   0  0  0  0  0  0  0  0  0  0  0  0
   -0.6571    2.8794    1.2448 H   0  0  0  0  0  0  0  0  0  0  0  0
    1.0222   -0.4665    1.7994 C   0  0  0  0  0  0  0  0  0  0  0  0
    2.2417   -0.5838    1.7935 O   0  0  0  0  0  0  0  0  0  0  0  0
    0.3581   -0.3950    3.0106 N   0  0  0  0  0  0  0  0  0  0  0  0
   -0.6085   -0.0867    2.9730 H   0  0  0  0  0  0  0  0  0  0  0  0
    1.0282   -0.4857    4.3004 C   0  0  0  0  0  0  0  0  0  0  0  0
    1.7229    0.3506    4.4304 H   0  0  0  0  0  0  0  0  0  0  0  0
    0.2935   -0.4576    5.1106 H   0  0  0  0  0  0  0  0  0  0  0  0
    1.5870   -1.4247    4.3753 H   0  0  0  0  0  0  0  0  0  0  0  0
  1  2  1  0  0  0  0
  2  3  1  0  0  0  0
  2  4  1  0  0  0  0
  2  5  1  0  0  0  0
  5  6  2  0  0  0  0
  5  7  1  0  0  0  0
  7  8  1  0  0  0  0
  7  9  1  0  0  0  0
  9 10  1  0  0  0  0
  9 11  1  0  0  0  0
  9 16  1  0  0  0  0
 11 12  1  0  0  0  0
 11 13  1  0  0  0  0
 11 14  1  0  0  0  0
 14 15  1  0  0  0  0
 16 17  2  0  0  0  0
 16 18  1  0  0  0  0
 18 19  1  0  0  0  0
 18 20  1  0  0  0  0
 20 21  1  0  0  0  0
 20 22  1  0  0  0  0
 20 23  1  0  0  0  0
M  END
$$$$

  -OEChem-01062216093D

 23 22  0     1  0  0  0  0  0999 V2000
   -2.8538   -3.6305    0.8943 H   0  0  0  0  0  0  0  0  0  0  0  0
   -2.7973   -2.5743    0.6156 C   0  0  0  0  0  0  0  0  0  0  0  0
   -3.3965   -1.9919    1.3196 H   0  0  0  0  0  0  0  0  0  0  0  0
   -3.2083   -2.4540   -0.3897 H   0  0  0  0  0  0  0  0  0  0  0  0
   -1.3555   -2.1035    0.6448 C   0  0  0  0  0  0  0  0  0  0  0  0
   -0.4700   -2.8797    0.9546 O   0  0  0  0  0  0  0  0  0  0  0  0
   -1.0558   -0.7966    0.3212 N   0  0  0  0  0  0  0  0  0  0  0  0
   -1.8477   -0.1685    0.2132 H   0  0  0  0  0  0  0  0  0  0  0  0
    0.2683   -0.1623    0.4919 C   0  0  1  0  0  0  0  0  0  0  0  0
    0.9208   -0.5655   -0.2887 H   0  0  0  0  0  0  0  0  0  0  0  0
    0.1053    1.3390    0.2383 C   0  0  0  0  0  0  0  0  0  0  0  0
    1.0915    1.8159    0.2479 H   0  0  0  0  0  0  0  0  0  0  0  0
   -0.3344    1.5058   -0.7504 H   0  0  0  0  0  0  0  0  0  0  0  0
   -0.7218    1.9352    1.2464 O   0  0  0  0  0  0  0  0  0  0  0  0
   -0.6796    2.9068    1.1937 H   0  0  0  0  0  0  0  0  0  0  0  0
    1.0241   -0.3927    1.8197 C   0  0  0  0  0  0  0  0  0  0  0  0
    2.2415   -0.2519    1.8425 O   0  0  0  0  0  0  0  0  0  0  0  0
    0.3509   -0.6037    3.0097 N   0  0  0  0  0  0  0  0  0  0  0  0
   -0.6463   -0.7726    2.9380 H   0  0  0  0  0  0  0  0  0  0  0  0
    1.0260   -0.8677    4.2731 C   0  0  0  0  0  0  0  0  0  0  0  0
    1.6978   -0.0419    4.5299 H   0  0  0  0  0  0  0  0  0  0  0  0
    0.2925   -0.9768    5.0773 H   0  0  0  0  0  0  0  0  0  0  0  0
    1.6106   -1.7913    4.2077 H   0  0  0  0  0  0  0  0  0  0  0  0
  1  2  1  0  0  0  0
  2  3  1  0  0  0  0
  2  4  1  0  0  0  0
  2  5  1  0  0  0  0
  5  6  2  0  0  0  0
  5  7  1  0  0  0  0
  7  8  1  0  0  0  0
  7  9  1  0  0  0  0
  9 10  1  0  0  0  0
  9 11  1  0  0  0  0
  9 16  1  0  0  0  0
 11 12  1  0  0  0  0
 11 13  1  0  0  0  0
 11 14  1  0  0  0  0
 14 15  1  0  0  0  0
 16 17  2  0  0  0  0
 16 18  1  0  0  0  0
 18 19  1  0  0  0  0
 18 20  1  0  0  0  0
 20 21  1  0  0  0  0
 20 22  1  0  0  0  0
 20 23  1  0  0  0  0
M  END
$$$$

  -OEChem-01062216093D

 23 22  0     1  0  0  0  0  0999 V2000
   -2.9318   -3.6077    0.8092 H   0  0  0  0  0  0  0  0  0  0  0  0
   -2.8476   -2.5497    0.5446 C   0  0  0  0  0  0  0  0  0  0  0  0
   -3.4616   -1.9646    1.2335 H   0  0  0  0  0  0  0  0  0  0  0  0
   -3.2207   -2.4122   -0.4732 H   0  0  0  0  0  0  0  0  0  0  0  0
   -1.4003   -2.1032    0.6311 C   0  0  0  0  0  0  0  0  0  0  0  0
   -0.5450   -2.8866    1.0026 O   0  0  0  0  0  0  0  0  0  0  0  0
   -1.0658   -0.8019    0.3228 N   0  0  0  0  0  0  0  0  0  0  0  0
   -1.8459   -0.1627    0.1933 H   0  0  0  0  0  0  0  0  0  0  0  0
    0.2602   -0.1741    0.5139 C   0  0  1  0  0  0  0  0  0  0  0  0
    0.9190   -0.5783   -0.2606 H   0  0  0  0  0  0  0  0  0  0  0  0
    0.0926    1.3267    0.2506 C   0  0  0  0  0  0  0  0  0  0  0  0
    1.0744    1.8119    0.2689 H   0  0  0  0  0  0  0  0  0  0  0  0
   -0.3356    1.4865   -0.7442 H   0  0  0  0  0  0  0  0  0  0  0  0
   -0.7522    1.9213    1.2443 O   0  0  0  0  0  0  0  0  0  0  0  0
   -0.6888    2.8926    1.2120 H   0  0  0  0  0  0  0  0  0  0  0  0
    1.0201   -0.3946    1.8444 C   0  0  0  0  0  0  0  0  0  0  0  0
    2.1801   -0.0060    1.9303 O   0  0  0  0  0  0  0  0  0  0  0  0
    0.3997   -0.8966    2.9743 N   0  0  0  0  0  0  0  0  0  0  0  0
   -0.4412   -1.4351    2.7871 H   0  0  0  0  0  0  0  0  0  0  0  0
    1.1247   -1.1723    4.2074 C   0  0  0  0  0  0  0  0  0  0  0  0
    1.6218   -0.2671    4.5717 H   0  0  0  0  0  0  0  0  0  0  0  0
    0.4336   -1.5189    4.9816 H   0  0  0  0  0  0  0  0  0  0  0  0
    1.8802   -1.9475    4.0416 H   0  0  0  0  0  0  0  0  0  0  0  0
  1  2  1  0  0  0  0
  2  3  1  0  0  0  0
  2  4  1  0  0  0  0
  2  5  1  0  0  0  0
  5  6  2  0  0  0  0
  5  7  1  0  0  0  0
  7  8  1  0  0  0  0
  7  9  1  0  0  0  0
  9 10  1  0  0  0  0
  9 11  1  0  0  0  0
  9 16  1  0  0  0  0
 11 12  1  0  0  0  0
 11 13  1  0  0  0  0
 11 14  1  0  0  0  0
 14 15  1  0  0  0  0
 16 17  2  0  0  0  0
 16 18  1  0  0  0  0
 18 19  1  0  0  0  0
 18 20  1  0  0  0  0
 20 21  1  0  0  0  0
 20 22  1  0  0  0  0
 20 23  1  0  0  0  0
M  END
$$$$

  -OEChem-01062216093D

 23 22  0     1  0  0  0  0  0999 V2000
   -2.9836   -3.5798    0.7731 H   0  0  0  0  0  0  0  0  0  0  0  0
   -2.8795   -2.5200    0.5236 C   0  0  0  0  0  0  0  0  0  0  0  0
   -3.4687   -1.9321    1.2316 H   0  0  0  0  0  0  0  0  0  0  0  0
   -3.2664   -2.3579   -0.4855 H   0  0  0  0  0  0  0  0  0  0  0  0
   -1.4213   -2.1075    0.5924 C   0  0  0  0  0  0  0  0  0  0  0  0
   -0.5758   -2.9227    0.9179 O   0  0  0  0  0  0  0  0  0  0  0  0
   -1.0647   -0.8074    0.3053 N   0  0  0  0  0  0  0  0  0  0  0  0
   -1.8398   -0.1546    0.2186 H   0  0  0  0  0  0  0  0  0  0  0  0
    0.2624   -0.1862    0.5178 C   0  0  1  0  0  0  0  0  0  0  0  0
    0.9272   -0.5831   -0.2549 H   0  0  0  0  0  0  0  0  0  0  0  0
    0.0823    1.3153    0.2580 C   0  0  0  0  0  0  0  0  0  0  0  0
    1.0573    1.8138    0.2850 H   0  0  0  0  0  0  0  0  0  0  0  0
   -0.3395    1.4748   -0.7397 H   0  0  0  0  0  0  0  0  0  0  0  0
   -0.7794    1.8937    1.2469 O   0  0  0  0  0  0  0  0  0  0  0  0
   -0.6993    2.8642    1.2449 H   0  0  0  0  0  0  0  0  0  0  0  0
    1.0219   -0.4109    1.8518 C   0  0  0  0  0  0  0  0  0  0  0  0
    2.0929    0.1611    2.0268 O   0  0  0  0  0  0  0  0  0  0  0  0
    0.5134   -1.1820    2.8812 N   0  0  0  0  0  0  0  0  0  0  0  0
   -0.1705   -1.8748    2.5783 H   0  0  0  0  0  0  0  0  0  0  0  0
    1.2674   -1.4641    4.0956 C   0  0  0  0  0  0  0  0  0  0  0  0
    1.5471   -0.5328    4.5992 H   0  0  0  0  0  0  0  0  0  0  0  0
    0.6606   -2.0582    4.7855 H   0  0  0  0  0  0  0  0  0  0  0  0
    2.1777   -2.0250    3.8598 H   0  0  0  0  0  0  0  0  0  0  0  0
  1  2  1  0  0  0  0
  2  3  1  0  0  0  0
  2  4  1  0  0  0  0
  2  5  1  0  0  0  0
  5  6  2  0  0  0  0
  5  7  1  0  0  0  0
  7  8  1  0  0  0  0
  7  9  1  0  0  0  0
  9 10  1  0  0  0  0
  9 11  1  0  0  0  0
  9 16  1  0  0  0  0
 11 12  1  0  0  0  0
 11 13  1  0  0  0  0
 11 14  1  0  0  0  0
 14 15  1  0  0  0  0
 16 17  2  0  0  0  0
 16 18  1  0  0  0  0
 18 19  1  0  0  0  0
 18 20  1  0  0  0  0
 20 21  1  0  0  0  0
 20 22  1  0  0  0  0
 20 23  1  0  0  0  0
M  END
$$$$

  -OEChem-01062216093D

 23 22  0     1  0  0  0  0  0999 V2000
   -3.0033   -3.5553    0.7822 H   0  0  0  0  0  0  0  0  0  0  0  0
   -2.8883   -2.4954    0.5384 C   0  0  0  0  0  0  0  0  0  0  0  0
   -3.4347   -1.9035    1.2767 H   0  0  0  0  0  0  0  0  0  0  0  0
   -3.3134   -2.3141   -0.4519 H   0  0  0  0  0  0  0  0  0  0  0  0
   -1.4208   -2.1119    0.5495 C   0  0  0  0  0  0  0  0  0  0  0  0
   -0.5739   -2.9592    0.7780 O   0  0  0  0  0  0  0  0  0  0  0  0
   -1.0559   -0.8097    0.2833 N   0  0  0  0  0  0  0  0  0  0  0  0
   -1.8305   -0.1509    0.2493 H   0  0  0  0  0  0  0  0  0  0  0  0
    0.2685   -0.1900    0.5169 C   0  0  1  0  0  0  0  0  0  0  0  0
    0.9415   -0.5782   -0.2532 H   0  0  0  0  0  0  0  0  0  0  0  0
    0.0729    1.3107    0.2572 C   0  0  0  0  0  0  0  0  0  0  0  0
    1.0402    1.8232    0.2940 H   0  0  0  0  0  0  0  0  0  0  0  0
   -0.3404    1.4674   -0.7446 H   0  0  0  0  0  0  0  0  0  0  0  0
   -0.8081    1.8742    1.2380 O   0  0  0  0  0  0  0  0  0  0  0  0
   -0.7164    2.8434    1.2621 H   0  0  0  0  0  0  0  0  0  0  0  0
    1.0223   -0.4233    1.8564 C   0  0  0  0  0  0  0  0  0  0  0  0
    1.9778    0.2924    2.1388 O   0  0  0  0  0  0  0  0  0  0  0  0
    0.6792   -1.4205    2.7507 N   0  0  0  0  0  0  0  0  0  0  0  0
    0.1011   -2.1640    2.3557 H   0  0  0  0  0  0  0  0  0  0  0  0
    1.4625   -1.7255    3.9411 C   0  0  0  0  0  0  0  0  0  0  0  0
    1.5475   -0.8416    4.5820 H   0  0  0  0  0  0  0  0  0  0  0  0
    0.9777   -2.5205    4.5158 H   0  0  0  0  0  0  0  0  0  0  0  0
    2.4679   -2.0591    3.6641 H   0  0  0  0  0  0  0  0  0  0  0  0
  1  2  1  0  0  0  0
  2  3  1  0  0  0  0
  2  4  1  0  0  0  0
  2  5  1  0  0  0  0
  5  6  2  0  0  0  0
  5  7  1  0  0  0  0
  7  8  1  0  0  0  0
  7  9  1  0  0  0  0
  9 10  1  0  0  0  0
  9 11  1  0  0  0  0
  9 16  1  0  0  0  0
 11 12  1  0  0  0  0
 11 13  1  0  0  0  0
 11 14  1  0  0  0  0
 14 15  1  0  0  0  0
 16 17  2  0  0  0  0
 16 18  1  0  0  0  0
 18 19  1  0  0  0  0
 18 20  1  0  0  0  0
 20 21  1  0  0  0  0
 20 22  1  0  0  0  0
 20 23  1  0  0  0  0
M  END
$$$$

  -OEChem-01062216093D

 23 22  0     1  0  0  0  0  0999 V2000
   -3.0838   -3.4773    0.9253 H   0  0  0  0  0  0  0  0  0  0  0  0
   -2.9495   -2.4192    0.6835 C   0  0  0  0  0  0  0  0  0  0  0  0
   -3.4108   -1.8177    1.4707 H   0  0  0  0  0  0  0  0  0  0  0  0
   -3.4480   -2.2095   -0.2661 H   0  0  0  0  0  0  0  0  0  0  0  0
   -1.4725   -2.0900    0.5766 C   0  0  0  0  0  0  0  0  0  0  0  0
   -0.6434   -2.9773    0.6947 O   0  0  0  0  0  0  0  0  0  0  0  0
   -1.0815   -0.7991    0.2915 N   0  0  0  0  0  0  0  0  0  0  0  0
   -1.8361   -0.1170    0.3252 H   0  0  0  0  0  0  0  0  0  0  0  0
    0.2657   -0.2161    0.4845 C   0  0  1  0  0  0  0  0  0  0  0  0
    0.9066   -0.6321   -0.2980 H   0  0  0  0  0  0  0  0  0  0  0  0
    0.1011    1.2849    0.2025 C   0  0  0  0  0  0  0  0  0  0  0  0
    1.0817    1.7725    0.2073 H   0  0  0  0  0  0  0  0  0  0  0  0
   -0.3316    1.4357   -0.7922 H   0  0  0  0  0  0  0  0  0  0  0  0
   -0.7424    1.8865    1.1938 O   0  0  0  0  0  0  0  0  0  0  0  0
   -0.5853    2.8466    1.2368 H   0  0  0  0  0  0  0  0  0  0  0  0
    1.0473   -0.4652    1.8076 C   0  0  0  0  0  0  0  0  0  0  0  0
    1.8926    0.3430    2.1781 O   0  0  0  0  0  0  0  0  0  0  0  0
    0.8983   -1.6137    2.5622 N   0  0  0  0  0  0  0  0  0  0  0  0
    0.3663   -2.3654    2.1184 H   0  0  0  0  0  0  0  0  0  0  0  0
    1.7328   -1.9391    3.7116 C   0  0  0  0  0  0  0  0  0  0  0  0
    1.6648   -1.1521    4.4699 H   0  0  0  0  0  0  0  0  0  0  0  0
    1.4025   -2.8799    4.1621 H   0  0  0  0  0  0  0  0  0  0  0  0
    2.7790   -2.0475    3.4073 H   0  0  0  0  0  0  0  0  0  0  0  0
  1  2  1  0  0  0  0
  2  3  1  0  0  0  0
  2  4  1  0  0  0  0
  2  5  1  0  0  0  0
  5  6  2  0  0  0  0
  5  7  1  0  0  0  0
  7  8  1  0  0  0  0
  7  9  1  0  0  0  0
  9 10  1  0  0  0  0
  9 11  1  0  0  0  0
  9 16  1  0  0  0  0
 11 12  1  0  0  0  0
 11 13  1  0  0  0  0
 11 14  1  0  0  0  0
 14 15  1  0  0  0  0
 16 17  2  0  0  0  0
 16 18  1  0  0  0  0
 18 19  1  0  0  0  0
 18 20  1  0  0  0  0
 20 21  1  0  0  0  0
 20 22  1  0  0  0  0
 20 23  1  0  0  0  0
M  END
$$$$

  -OEChem-01062216093D

 23 22  0     1  0  0  0  0  0999 V2000
   -2.9506   -3.5602    0.8597 H   0  0  0  0  0  0  0  0  0  0  0  0
   -2.8559   -2.4963    0.6245 C   0  0  0  0  0  0  0  0  0  0  0  0
   -3.3341   -1.9171    1.4183 H   0  0  0  0  0  0  0  0  0  0  0  0
   -3.3671   -2.2979   -0.3207 H   0  0  0  0  0  0  0  0  0  0  0  0
   -1.3923   -2.1132    0.5123 C   0  0  0  0  0  0  0  0  0  0  0  0
   -0.5328   -2.9773    0.5749 O   0  0  0  0  0  0  0  0  0  0  0  0
   -1.0490   -0.8015    0.2627 N   0  0  0  0  0  0  0  0  0  0  0  0
   -1.8279   -0.1485    0.3224 H   0  0  0  0  0  0  0  0  0  0  0  0
    0.2728   -0.1769    0.4913 C   0  0  1  0  0  0  0  0  0  0  0  0
    0.9421   -0.5525   -0.2882 H   0  0  0  0  0  0  0  0  0  0  0  0
    0.0577    1.3217    0.2316 C   0  0  0  0  0  0  0  0  0  0  0  0
    1.0208    1.8420    0.2666 H   0  0  0  0  0  0  0  0  0  0  0  0
   -0.3600    1.4756   -0.7687 H   0  0  0  0  0  0  0  0  0  0  0  0
   -0.8259    1.8746    1.2164 O   0  0  0  0  0  0  0  0  0  0  0  0
   -0.5965    2.8042    1.3949 H   0  0  0  0  0  0  0  0  0  0  0  0
    1.0336   -0.4380    1.8245 C   0  0  0  0  0  0  0  0  0  0  0  0
    1.6723    0.4600    2.3640 O   0  0  0  0  0  0  0  0  0  0  0  0
    1.1419   -1.7011    2.3736 N   0  0  0  0  0  0  0  0  0  0  0  0
    0.6951   -2.4606    1.8538 H   0  0  0  0  0  0  0  0  0  0  0  0
    1.9489   -2.0233    3.5428 C   0  0  0  0  0  0  0  0  0  0  0  0
    1.6343   -1.4233    4.4028 H   0  0  0  0  0  0  0  0  0  0  0  0
    1.8333   -3.0808    3.7992 H   0  0  0  0  0  0  0  0  0  0  0  0
    3.0076   -1.8281    3.3431 H   0  0  0  0  0  0  0  0  0  0  0  0
  1  2  1  0  0  0  0
  2  3  1  0  0  0  0
  2  4  1  0  0  0  0
  2  5  1  0  0  0  0
  5  6  2  0  0  0  0
  5  7  1  0  0  0  0
  7  8  1  0  0  0  0
  7  9  1  0  0  0  0
  9 10  1  0  0  0  0
  9 11  1  0  0  0  0
  9 16  1  0  0  0  0
 11 12  1  0  0  0  0
 11 13  1  0  0  0  0
 11 14  1  0  0  0  0
 14 15  1  0  0  0  0
 16 17  2  0  0  0  0
 16 18  1  0  0  0  0
 18 19  1  0  0  0  0
 18 20  1  0  0  0  0
 20 21  1  0  0  0  0
 20 22  1  0  0  0  0
 20 23  1  0  0  0  0
M  END
$$$$

  -OEChem-01062216093D

 23 22  0     1  0  0  0  0  0999 V2000
   -2.8734   -3.5520    0.9552 H   0  0  0  0  0  0  0  0  0  0  0  0
   -2.8017   -2.4829    0.7359 C   0  0  0  0  0  0  0  0  0  0  0  0
   -3.2363   -1.9236    1.5682 H   0  0  0  0  0  0  0  0  0  0  0  0
   -3.3710   -2.2716   -0.1727 H   0  0  0  0  0  0  0  0  0  0  0  0
   -1.3506   -2.0839    0.5444 C   0  0  0  0  0  0  0  0  0  0  0  0
   -0.4757   -2.9338    0.5871 O   0  0  0  0  0  0  0  0  0  0  0  0
   -1.0363   -0.7757    0.2404 N   0  0  0  0  0  0  0  0  0  0  0  0
   -1.8215   -0.1286    0.2891 H   0  0  0  0  0  0  0  0  0  0  0  0
    0.2908   -0.1369    0.3729 C   0  0  1  0  0  0  0  0  0  0  0  0
    0.9214   -0.5199   -0.4348 H   0  0  0  0  0  0  0  0  0  0  0  0
    0.0721    1.3622    0.1171 C   0  0  0  0  0  0  0  0  0  0  0  0
    1.0361    1.8807    0.0773 H   0  0  0  0  0  0  0  0  0  0  0  0
   -0.4205    1.5057   -0.8503 H   0  0  0  0  0  0  0  0  0  0  0  0
   -0.7364    1.9235    1.1561 O   0  0  0  0  0  0  0  0  0  0  0  0
   -0.2372    1.8684    1.9993 H   0  0  0  0  0  0  0  0  0  0  0  0
    1.0917   -0.3901    1.6826 C   0  0  0  0  0  0  0  0  0  0  0  0
    1.3795    0.5465    2.4233 O   0  0  0  0  0  0  0  0  0  0  0  0
    1.4683   -1.6587    2.0759 N   0  0  0  0  0  0  0  0  0  0  0  0
    1.0619   -2.4294    1.5375 H   0  0  0  0  0  0  0  0  0  0  0  0
    2.1100   -1.9585    3.3492 C   0  0  0  0  0  0  0  0  0  0  0  0
    1.4616   -1.6707    4.1832 H   0  0  0  0  0  0  0  0  0  0  0  0
    2.3150   -3.0308    3.4234 H   0  0  0  0  0  0  0  0  0  0  0  0
    3.0593   -1.4197    3.4368 H   0  0  0  0  0  0  0  0  0  0  0  0
  1  2  1  0  0  0  0
  2  3  1  0  0  0  0
  2  4  1  0  0  0  0
  2  5  1  0  0  0  0
  5  6  2  0  0  0  0
  5  7  1  0  0  0  0
  7  8  1  0  0  0  0
  7  9  1  0  0  0  0
  9 10  1  0  0  0  0
  9 11  1  0  0  0  0
  9 16  1  0  0  0  0
 11 12  1  0  0  0  0
 11 13  1  0  0  0  0
 11 14  1  0  0  0  0
 14 15  1  0  0  0  0
 16 17  2  0  0  0  0
 16 18  1  0  0  0  0
 18 19  1  0  0  0  0
 18 20  1  0  0  0  0
 20 21  1  0  0  0  0
 20 22  1  0  0  0  0
 20 23  1  0  0  0  0
M  END
$$$$

  -OEChem-01062216093D

 23 22  0     1  0  0  0  0  0999 V2000
   -2.7720   -3.5707    1.0289 H   0  0  0  0  0  0  0  0  0  0  0  0
   -2.7365   -2.5039    0.7904 C   0  0  0  0  0  0  0  0  0  0  0  0
   -3.1731   -1.9436    1.6209 H   0  0  0  0  0  0  0  0  0  0  0  0
   -3.3270   -2.3250   -0.1116 H   0  0  0  0  0  0  0  0  0  0  0  0
   -1.3016   -2.0657    0.5667 C   0  0  0  0  0  0  0  0  0  0  0  0
   -0.3982   -2.8860    0.6125 O   0  0  0  0  0  0  0  0  0  0  0  0
   -1.0269   -0.7543    0.2391 N   0  0  0  0  0  0  0  0  0  0  0  0
   -1.8202   -0.1189    0.3069 H   0  0  0  0  0  0  0  0  0  0  0  0
    0.2961   -0.1094    0.3560 C   0  0  1  0  0  0  0  0  0  0  0  0
    0.9267   -0.4927   -0.4517 H   0  0  0  0  0  0  0  0  0  0  0  0
    0.0767    1.3888    0.0972 C   0  0  0  0  0  0  0  0  0  0  0  0
    1.0430    1.9026    0.0541 H   0  0  0  0  0  0  0  0  0  0  0  0
   -0.4191    1.5323   -0.8684 H   0  0  0  0  0  0  0  0  0  0  0  0
   -0.7228    1.9573    1.1393 O   0  0  0  0  0  0  0  0  0  0  0  0
   -0.2447    1.8443    1.9908 H   0  0  0  0  0  0  0  0  0  0  0  0
    1.0827   -0.3644    1.6708 C   0  0  0  0  0  0  0  0  0  0  0  0
    1.1916    0.5191    2.5176 O   0  0  0  0  0  0  0  0  0  0  0  0
    1.7016   -1.5771    1.9000 N   0  0  0  0  0  0  0  0  0  0  0  0
    1.3517   -2.3473    1.3230 H   0  0  0  0  0  0  0  0  0  0  0  0
    2.3520   -1.9110    3.1603 C   0  0  0  0  0  0  0  0  0  0  0  0
    1.6286   -1.8928    3.9822 H   0  0  0  0  0  0  0  0  0  0  0  0
    2.7886   -2.9128    3.1029 H   0  0  0  0  0  0  0  0  0  0  0  0
    3.1543   -1.1987    3.3799 H   0  0  0  0  0  0  0  0  0  0  0  0
  1  2  1  0  0  0  0
  2  3  1  0  0  0  0
  2  4  1  0  0  0  0
  2  5  1  0  0  0  0
  5  6  2  0  0  0  0
  5  7  1  0  0  0  0
  7  8  1  0  0  0  0
  7  9  1  0  0  0  0
  9 10  1  0  0  0  0
  9 11  1  0  0  0  0
  9 16  1  0  0  0  0
 11 12  1  0  0  0  0
 11 13  1  0  0  0  0
 11 14  1  0  0  0  0
 14 15  1  0  0  0  0
 16 17  2  0  0  0  0
 16 18  1  0  0  0  0
 18 19  1  0  0  0  0
 18 20  1  0  0  0  0
 20 21  1  0  0  0  0
 20 22  1  0  0  0  0
 20 23  1  0  0  0  0
M  END
$$$$

  -OEChem-01062216093D

 23 22  0     1  0  0  0  0  0999 V2000
   -2.6842   -3.5924    1.0431 H   0  0  0  0  0  0  0  0  0  0  0  0
   -2.6778   -2.5189    0.8341 C   0  0  0  0  0  0  0  0  0  0  0  0
   -3.0976   -1.9909    1.6938 H   0  0  0  0  0  0  0  0  0  0  0  0
   -3.3008   -2.3272   -0.0430 H   0  0  0  0  0  0  0  0  0  0  0  0
   -1.2602   -2.0447    0.5772 C   0  0  0  0  0  0  0  0  0  0  0  0
   -0.3279   -2.8327    0.6323 O   0  0  0  0  0  0  0  0  0  0  0  0
   -1.0240   -0.7312    0.2285 N   0  0  0  0  0  0  0  0  0  0  0  0
   -1.8238   -0.1065    0.3154 H   0  0  0  0  0  0  0  0  0  0  0  0
    0.2962   -0.0851    0.3397 C   0  0  1  0  0  0  0  0  0  0  0  0
    0.9301   -0.4693   -0.4651 H   0  0  0  0  0  0  0  0  0  0  0  0
    0.0828    1.4137    0.0815 C   0  0  0  0  0  0  0  0  0  0  0  0
    1.0527    1.9204    0.0412 H   0  0  0  0  0  0  0  0  0  0  0  0
   -0.4105    1.5620   -0.8848 H   0  0  0  0  0  0  0  0  0  0  0  0
   -0.7120    1.9892    1.1234 O   0  0  0  0  0  0  0  0  0  0  0  0
   -0.2729    1.8079    1.9855 H   0  0  0  0  0  0  0  0  0  0  0  0
    1.0589   -0.3460    1.6649 C   0  0  0  0  0  0  0  0  0  0  0  0
    0.9793    0.4440    2.6028 O   0  0  0  0  0  0  0  0  0  0  0  0
    1.9101   -1.4288    1.7688 N   0  0  0  0  0  0  0  0  0  0  0  0
    1.6864   -2.1929    1.1281 H   0  0  0  0  0  0  0  0  0  0  0  0
    2.5853   -1.7732    3.0137 C   0  0  0  0  0  0  0  0  0  0  0  0
    1.8542   -2.0168    3.7916 H   0  0  0  0  0  0  0  0  0  0  0  0
    3.2344   -2.6409    2.8620 H   0  0  0  0  0  0  0  0  0  0  0  0
    3.2043   -0.9388    3.3600 H   0  0  0  0  0  0  0  0  0  0  0  0
  1  2  1  0  0  0  0
  2  3  1  0  0  0  0
  2  4  1  0  0  0  0
  2  5  1  0  0  0  0
  5  6  2  0  0  0  0
  5  7  1  0  0  0  0
  7  8  1  0  0  0  0
  7  9  1  0  0  0  0
  9 10  1  0  0  0  0
  9 11  1  0  0  0  0
  9 16  1  0  0  0  0
 11 12  1  0  0  0  0
 11 13  1  0  0  0  0
 11 14  1  0  0  0  0
 14 15  1  0  0  0  0
 16 17  2  0  0  0  0
 16 18  1  0  0  0  0
 18 19  1  0  0  0  0
 18 20  1  0  0  0  0
 20 21  1  0  0  0  0
 20 22  1  0  0  0  0
 20 23  1  0  0  0  0
M  END
$$$$

  -OEChem-01062216093D

 23 22  0     1  0  0  0  0  0999 V2000
   -2.5439   -3.6497    1.1170 H   0  0  0  0  0  0  0  0  0  0  0  0
   -2.5961   -2.5845    0.8751 C   0  0  0  0  0  0  0  0  0  0  0  0
   -3.0117   -2.0499    1.7329 H   0  0  0  0  0  0  0  0  0  0  0  0
   -3.2555   -2.4496    0.0144 H   0  0  0  0  0  0  0  0  0  0  0  0
   -1.2121   -2.0531    0.5555 C   0  0  0  0  0  0  0  0  0  0  0  0
   -0.2573   -2.8145    0.4970 O   0  0  0  0  0  0  0  0  0  0  0  0
   -1.0323   -0.7148    0.2739 N   0  0  0  0  0  0  0  0  0  0  0  0
   -1.8283   -0.1220    0.5003 H   0  0  0  0  0  0  0  0  0  0  0  0
    0.2787   -0.0662    0.4318 C   0  0  1  0  0  0  0  0  0  0  0  0
    0.9165   -0.4343   -0.3771 H   0  0  0  0  0  0  0  0  0  0  0  0
    0.0908    1.4369    0.1760 C   0  0  0  0  0  0  0  0  0  0  0  0
    1.0737    1.9193    0.1813 H   0  0  0  0  0  0  0  0  0  0  0  0
   -0.3512    1.5936   -0.8135 H   0  0  0  0  0  0  0  0  0  0  0  0
   -0.7342    2.0511    1.1722 O   0  0  0  0  0  0  0  0  0  0  0  0
   -0.6250    3.0176    1.1728 H   0  0  0  0  0  0  0  0  0  0  0  0
    1.0358   -0.3975    1.7442 C   0  0  0  0  0  0  0  0  0  0  0  0
    0.7485    0.1222    2.8156 O   0  0  0  0  0  0  0  0  0  0  0  0
    2.1116   -1.2662    1.6974 N   0  0  0  0  0  0  0  0  0  0  0  0
    2.1054   -1.8998    0.9003 H   0  0  0  0  0  0  0  0  0  0  0  0
    2.8061   -1.7096    2.9001 C   0  0  0  0  0  0  0  0  0  0  0  0
    2.1237   -2.2617    3.5548 H   0  0  0  0  0  0  0  0  0  0  0  0
    3.6398   -2.3660    2.6331 H   0  0  0  0  0  0  0  0  0  0  0  0
    3.2074   -0.8524    3.4511 H   0  0  0  0  0  0  0  0  0  0  0  0
  1  2  1  0  0  0  0
  2  3  1  0  0  0  0
  2  4  1  0  0  0  0
  2  5  1  0  0  0  0
  5  6  2  0  0  0  0
  5  7  1  0  0  0  0
  7  8  1  0  0  0  0
  7  9  1  0  0  0  0
  9 10  1  0  0  0  0
  9 11  1  0  0  0  0
  9 16  1  0  0  0  0
 11 12  1  0  0  0  0
 11 13  1  0  0  0  0
 11 14  1  0  0  0  0
 14 15  1  0  0  0  0
 16 17  2  0  0  0  0
 16 18  1  0  0  0  0
 18 19  1  0  0  0  0
 18 20  1  0  0  0  0
 20 21  1  0  0  0  0
 20 22  1  0  0  0  0
 20 23  1  0  0  0  0
M  END
$$$$

  -OEChem-01062216093D

 23 22  0     1  0  0  0  0  0999 V2000
   -2.4807   -3.6551    1.1455 H   0  0  0  0  0  0  0  0  0  0  0  0
   -2.5444   -2.5818    0.9459 C   0  0  0  0  0  0  0  0  0  0  0  0
   -2.8959   -2.0768    1.8491 H   0  0  0  0  0  0  0  0  0  0  0  0
   -3.2615   -2.4142    0.1388 H   0  0  0  0  0  0  0  0  0  0  0  0
   -1.1831   -2.0426    0.5512 C   0  0  0  0  0  0  0  0  0  0  0  0
   -0.2260   -2.7964    0.4500 O   0  0  0  0  0  0  0  0  0  0  0  0
   -1.0290   -0.7054    0.2488 N   0  0  0  0  0  0  0  0  0  0  0  0
   -1.8217   -0.1257    0.5150 H   0  0  0  0  0  0  0  0  0  0  0  0
    0.2777   -0.0471    0.3997 C   0  0  1  0  0  0  0  0  0  0  0  0
    0.9159   -0.4207   -0.4060 H   0  0  0  0  0  0  0  0  0  0  0  0
    0.1001    1.4570    0.1534 C   0  0  0  0  0  0  0  0  0  0  0  0
    1.0850    1.9356    0.1513 H   0  0  0  0  0  0  0  0  0  0  0  0
   -0.3514    1.6186   -0.8310 H   0  0  0  0  0  0  0  0  0  0  0  0
   -0.7146    2.0676    1.1590 O   0  0  0  0  0  0  0  0  0  0  0  0
   -0.6860    3.0377    1.0952 H   0  0  0  0  0  0  0  0  0  0  0  0
    1.0225   -0.3667    1.7198 C   0  0  0  0  0  0  0  0  0  0  0  0
    0.5139   -0.1418    2.8122 O   0  0  0  0  0  0  0  0  0  0  0  0
    2.2694   -0.9664    1.6745 N   0  0  0  0  0  0  0  0  0  0  0  0
    2.5208   -1.3870    0.7844 H   0  0  0  0  0  0  0  0  0  0  0  0
    2.9343   -1.4677    2.8711 C   0  0  0  0  0  0  0  0  0  0  0  0
    2.3460   -2.2716    3.3259 H   0  0  0  0  0  0  0  0  0  0  0  0
    3.9230   -1.8608    2.6165 H   0  0  0  0  0  0  0  0  0  0  0  0
    3.0629   -0.6655    3.6055 H   0  0  0  0  0  0  0  0  0  0  0  0
  1  2  1  0  0  0  0
  2  3  1  0  0  0  0
  2  4  1  0  0  0  0
  2  5  1  0  0  0  0
  5  6  2  0  0  0  0
  5  7  1  0  0  0  0
  7  8  1  0  0  0  0
  7  9  1  0  0  0  0
  9 10  1  0  0  0  0
  9 11  1  0  0  0  0
  9 16  1  0  0  0  0
 11 12  1  0  0  0  0
 11 13  1  0  0  0  0
 11 14  1  0  0  0  0
 14 15  1  0  0  0  0
 16 17  2  0  0  0  0
 16 18  1  0  0  0  0
 18 19  1  0  0  0  0
 18 20  1  0  0  0  0
 20 21  1  0  0  0  0
 20 22  1  0  0  0  0
 20 23  1  0  0  0  0
M  END
$$$$

  -OEChem-01062216093D

 23 22  0     1  0  0  0  0  0999 V2000
   -2.4821   -3.6484    1.1585 H   0  0  0  0  0  0  0  0  0  0  0  0
   -2.5439   -2.5741    0.9639 C   0  0  0  0  0  0  0  0  0  0  0  0
   -2.8644   -2.0695    1.8789 H   0  0  0  0  0  0  0  0  0  0  0  0
   -3.2833   -2.3986    0.1792 H   0  0  0  0  0  0  0  0  0  0  0  0
   -1.1904   -2.0441    0.5315 C   0  0  0  0  0  0  0  0  0  0  0  0
   -0.2415   -2.8040    0.4033 O   0  0  0  0  0  0  0  0  0  0  0  0
   -1.0364   -0.7086    0.2205 N   0  0  0  0  0  0  0  0  0  0  0  0
   -1.8245   -0.1305    0.5028 H   0  0  0  0  0  0  0  0  0  0  0  0
    0.2724   -0.0552    0.3816 C   0  0  1  0  0  0  0  0  0  0  0  0
    0.9157   -0.4328   -0.4184 H   0  0  0  0  0  0  0  0  0  0  0  0
    0.1056    1.4517    0.1516 C   0  0  0  0  0  0  0  0  0  0  0  0
    1.0925    1.9260    0.1561 H   0  0  0  0  0  0  0  0  0  0  0  0
   -0.3443    1.6274   -0.8311 H   0  0  0  0  0  0  0  0  0  0  0  0
   -0.7083    2.0489    1.1661 O   0  0  0  0  0  0  0  0  0  0  0  0
   -0.7102    3.0190    1.0921 H   0  0  0  0  0  0  0  0  0  0  0  0
    1.0031   -0.3687    1.7100 C   0  0  0  0  0  0  0  0  0  0  0  0
    0.4018   -0.3717    2.7791 O   0  0  0  0  0  0  0  0  0  0  0  0
    2.3525   -0.6782    1.7007 N   0  0  0  0  0  0  0  0  0  0  0  0
    2.7672   -0.8709    0.7943 H   0  0  0  0  0  0  0  0  0  0  0  0
    3.0570   -1.1375    2.8916 C   0  0  0  0  0  0  0  0  0  0  0  0
    2.6393   -2.0879    3.2407 H   0  0  0  0  0  0  0  0  0  0  0  0
    4.1182   -1.2849    2.6698 H   0  0  0  0  0  0  0  0  0  0  0  0
    2.9739   -0.3990    3.6961 H   0  0  0  0  0  0  0  0  0  0  0  0
  1  2  1  0  0  0  0
  2  3  1  0  0  0  0
  2  4  1  0  0  0  0
  2  5  1  0  0  0  0
  5  6  2  0  0  0  0
  5  7  1  0  0  0  0
  7  8  1  0  0  0  0
  7  9  1  0  0  0  0
  9 10  1  0  0  0  0
  9 11  1  0  0  0  0
  9 16  1  0  0  0  0
 11 12  1  0  0  0  0
 11 13  1  0  0  0  0
 11 14  1  0  0  0  0
 14 15  1  0  0  0  0
 16 17  2  0  0  0  0
 16 18  1  0  0  0  0
 18 19  1  0  0  0  0
 18 20  1  0  0  0  0
 20 21  1  0  0  0  0
 20 22  1  0  0  0  0
 20 23  1  0  0  0  0
M  END
$$$$

  -OEChem-01062216093D

 23 22  0     1  0  0  0  0  0999 V2000
   -2.5082   -3.6422    1.1434 H   0  0  0  0  0  0  0  0  0  0  0  0
   -2.5571   -2.5644    0.9656 C   0  0  0  0  0  0  0  0  0  0  0  0
   -2.8498   -2.0680    1.8942 H   0  0  0  0  0  0  0  0  0  0  0  0
   -3.3090   -2.3658    0.1983 H   0  0  0  0  0  0  0  0  0  0  0  0
   -1.2046   -2.0489    0.5138 C   0  0  0  0  0  0  0  0  0  0  0  0
   -0.2691   -2.8203    0.3582 O   0  0  0  0  0  0  0  0  0  0  0  0
   -1.0401   -0.7150    0.2002 N   0  0  0  0  0  0  0  0  0  0  0  0
   -1.8234   -0.1341    0.4896 H   0  0  0  0  0  0  0  0  0  0  0  0
    0.2728   -0.0717    0.3757 C   0  0  1  0  0  0  0  0  0  0  0  0
    0.9225   -0.4524   -0.4178 H   0  0  0  0  0  0  0  0  0  0  0  0
    0.1103    1.4361    0.1548 C   0  0  0  0  0  0  0  0  0  0  0  0
    1.0965    1.9113    0.1670 H   0  0  0  0  0  0  0  0  0  0  0  0
   -0.3355    1.6189   -0.8284 H   0  0  0  0  0  0  0  0  0  0  0  0
   -0.7094    2.0222    1.1713 O   0  0  0  0  0  0  0  0  0  0  0  0
   -0.7401    2.9910    1.0848 H   0  0  0  0  0  0  0  0  0  0  0  0
    0.9943   -0.3799    1.7111 C   0  0  0  0  0  0  0  0  0  0  0  0
    0.3634   -0.5789    2.7446 O   0  0  0  0  0  0  0  0  0  0  0  0
    2.3781   -0.3903    1.7623 N   0  0  0  0  0  0  0  0  0  0  0  0
    2.8726   -0.3605    0.8766 H   0  0  0  0  0  0  0  0  0  0  0  0
    3.1174   -0.7772    2.9580 C   0  0  0  0  0  0  0  0  0  0  0  0
    2.8974   -1.8167    3.2236 H   0  0  0  0  0  0  0  0  0  0  0  0
    4.1935   -0.6832    2.7839 H   0  0  0  0  0  0  0  0  0  0  0  0
    2.8482   -0.1334    3.8020 H   0  0  0  0  0  0  0  0  0  0  0  0
  1  2  1  0  0  0  0
  2  3  1  0  0  0  0
  2  4  1  0  0  0  0
  2  5  1  0  0  0  0
  5  6  2  0  0  0  0
  5  7  1  0  0  0  0
  7  8  1  0  0  0  0
  7  9  1  0  0  0  0
  9 10  1  0  0  0  0
  9 11  1  0  0  0  0
  9 16  1  0  0  0  0
 11 12  1  0  0  0  0
 11 13  1  0  0  0  0
 11 14  1  0  0  0  0
 14 15  1  0  0  0  0
 16 17  2  0  0  0  0
 16 18  1  0  0  0  0
 18 19  1  0  0  0  0
 18 20  1  0  0  0  0
 20 21  1  0  0  0  0
 20 22  1  0  0  0  0
 20 23  1  0  0  0  0
M  END
$$$$

  -OEChem-01062216093D

 23 22  0     1  0  0  0  0  0999 V2000
   -2.5424   -3.6328    1.1405 H   0  0  0  0  0  0  0  0  0  0  0  0
   -2.5820   -2.5562    0.9527 C   0  0  0  0  0  0  0  0  0  0  0  0
   -2.8635   -2.0491    1.8790 H   0  0  0  0  0  0  0  0  0  0  0  0
   -3.3377   -2.3571    0.1893 H   0  0  0  0  0  0  0  0  0  0  0  0
   -1.2273   -2.0587    0.4867 C   0  0  0  0  0  0  0  0  0  0  0  0
   -0.3122   -2.8454    0.2925 O   0  0  0  0  0  0  0  0  0  0  0  0
   -1.0430   -0.7245    0.1849 N   0  0  0  0  0  0  0  0  0  0  0  0
   -1.8188   -0.1373    0.4810 H   0  0  0  0  0  0  0  0  0  0  0  0
    0.2775   -0.0988    0.3739 C   0  0  1  0  0  0  0  0  0  0  0  0
    0.9282   -0.4752   -0.4209 H   0  0  0  0  0  0  0  0  0  0  0  0
    0.1176    1.4127    0.1733 C   0  0  0  0  0  0  0  0  0  0  0  0
    1.1029    1.8900    0.1910 H   0  0  0  0  0  0  0  0  0  0  0  0
   -0.3294    1.6091   -0.8070 H   0  0  0  0  0  0  0  0  0  0  0  0
   -0.7032    1.9811    1.1995 O   0  0  0  0  0  0  0  0  0  0  0  0
   -0.7451    2.9503    1.1209 H   0  0  0  0  0  0  0  0  0  0  0  0
    1.0008   -0.4151    1.7080 C   0  0  0  0  0  0  0  0  0  0  0  0
    0.3846   -0.7942    2.6992 O   0  0  0  0  0  0  0  0  0  0  0  0
    2.3514   -0.1374    1.8396 N   0  0  0  0  0  0  0  0  0  0  0  0
    2.8606    0.1201    1.0007 H   0  0  0  0  0  0  0  0  0  0  0  0
    3.1003   -0.3967    3.0632 C   0  0  0  0  0  0  0  0  0  0  0  0
    3.0702   -1.4628    3.3122 H   0  0  0  0  0  0  0  0  0  0  0  0
    4.1458   -0.0996    2.9372 H   0  0  0  0  0  0  0  0  0  0  0  0
    2.6786    0.1720    3.8986 H   0  0  0  0  0  0  0  0  0  0  0  0
  1  2  1  0  0  0  0
  2  3  1  0  0  0  0
  2  4  1  0  0  0  0
  2  5  1  0  0  0  0
  5  6  2  0  0  0  0
  5  7  1  0  0  0  0
  7  8  1  0  0  0  0
  7  9  1  0  0  0  0
  9 10  1  0  0  0  0
  9 11  1  0  0  0  0
  9 16  1  0  0  0  0
 11 12  1  0  0  0  0
 11 13  1  0  0  0  0
 11 14  1  0  0  0  0
 14 15  1  0  0  0  0
 16 17  2  0  0  0  0
 16 18  1  0  0  0  0
 18 19  1  0  0  0  0
 18 20  1  0  0  0  0
 20 21  1  0  0  0  0
 20 22  1  0  0  0  0
 20 23  1  0  0  0  0
M  END
$$$$

  -OEChem-01062216093D

 23 22  0     1  0  0  0  0  0999 V2000
   -2.6232   -3.5982    1.1024 H   0  0  0  0  0  0  0  0  0  0  0  0
   -2.6047   -2.5116    0.9830 C   0  0  0  0  0  0  0  0  0  0  0  0
   -2.7436   -2.0492    1.9633 H   0  0  0  0  0  0  0  0  0  0  0  0
   -3.4231   -2.2131    0.3241 H   0  0  0  0  0  0  0  0  0  0  0  0
   -1.2760   -2.0764    0.3956 C   0  0  0  0  0  0  0  0  0  0  0  0
   -0.4740   -2.9056   -0.0061 O   0  0  0  0  0  0  0  0  0  0  0  0
   -1.0294   -0.7430    0.1410 N   0  0  0  0  0  0  0  0  0  0  0  0
   -1.7763   -0.1512    0.4946 H   0  0  0  0  0  0  0  0  0  0  0  0
    0.3070   -0.1565    0.3688 C   0  0  1  0  0  0  0  0  0  0  0  0
    0.8728   -0.3068   -0.5549 H   0  0  0  0  0  0  0  0  0  0  0  0
    0.0963    1.3527    0.5532 C   0  0  0  0  0  0  0  0  0  0  0  0
    1.0646    1.8607    0.6025 H   0  0  0  0  0  0  0  0  0  0  0  0
   -0.4430    1.7566   -0.3103 H   0  0  0  0  0  0  0  0  0  0  0  0
   -0.6451    1.6185    1.7489 O   0  0  0  0  0  0  0  0  0  0  0  0
   -0.7156    2.5749    1.9165 H   0  0  0  0  0  0  0  0  0  0  0  0
    1.2079   -0.7399    1.4956 C   0  0  0  0  0  0  0  0  0  0  0  0
    0.7714   -1.4829    2.3680 O   0  0  0  0  0  0  0  0  0  0  0  0
    2.4651   -0.1952    1.7088 N   0  0  0  0  0  0  0  0  0  0  0  0
    2.8251    0.4464    1.0104 H   0  0  0  0  0  0  0  0  0  0  0  0
    3.3273   -0.5780    2.8214 C   0  0  0  0  0  0  0  0  0  0  0  0
    3.5443   -1.6509    2.7867 H   0  0  0  0  0  0  0  0  0  0  0  0
    4.2743   -0.0322    2.7720 H   0  0  0  0  0  0  0  0  0  0  0  0
    2.8453   -0.3467    3.7772 H   0  0  0  0  0  0  0  0  0  0  0  0
  1  2  1  0  0  0  0
  2  3  1  0  0  0  0
  2  4  1  0  0  0  0
  2  5  1  0  0  0  0
  5  6  2  0  0  0  0
  5  7  1  0  0  0  0
  7  8  1  0  0  0  0
  7  9  1  0  0  0  0
  9 10  1  0  0  0  0
  9 11  1  0  0  0  0
  9 16  1  0  0  0  0
 11 12  1  0  0  0  0
 11 13  1  0  0  0  0
 11 14  1  0  0  0  0
 14 15  1  0  0  0  0
 16 17  2  0  0  0  0
 16 18  1  0  0  0  0
 18 19  1  0  0  0  0
 18 20  1  0  0  0  0
 20 21  1  0  0  0  0
 20 22  1  0  0  0  0
 20 23  1  0  0  0  0
M  END
$$$$

  -OEChem-01062216093D

 23 22  0     1  0  0  0  0  0999 V2000
   -2.6381   -3.5931    1.0907 H   0  0  0  0  0  0  0  0  0  0  0  0
   -2.5929   -2.5033    1.0133 C   0  0  0  0  0  0  0  0  0  0  0  0
   -2.6761   -2.0773    2.0161 H   0  0  0  0  0  0  0  0  0  0  0  0
   -3.4299   -2.1564    0.4032 H   0  0  0  0  0  0  0  0  0  0  0  0
   -1.2779   -2.0828    0.3852 C   0  0  0  0  0  0  0  0  0  0  0  0
   -0.5240   -2.9193   -0.0864 O   0  0  0  0  0  0  0  0  0  0  0  0
   -1.0155   -0.7511    0.1388 N   0  0  0  0  0  0  0  0  0  0  0  0
   -1.7577   -0.1575    0.4987 H   0  0  0  0  0  0  0  0  0  0  0  0
    0.3218   -0.1637    0.3695 C   0  0  1  0  0  0  0  0  0  0  0  0
    0.8895   -0.3174   -0.5529 H   0  0  0  0  0  0  0  0  0  0  0  0
    0.0960    1.3470    0.5327 C   0  0  0  0  0  0  0  0  0  0  0  0
    1.0554    1.8717    0.5744 H   0  0  0  0  0  0  0  0  0  0  0  0
   -0.4459    1.7308   -0.3382 H   0  0  0  0  0  0  0  0  0  0  0  0
   -0.6572    1.6185    1.7197 O   0  0  0  0  0  0  0  0  0  0  0  0
   -0.7667    2.5764    1.8566 H   0  0  0  0  0  0  0  0  0  0  0  0
    1.2376   -0.7367    1.4954 C   0  0  0  0  0  0  0  0  0  0  0  0
    0.9177   -1.6855    2.2008 O   0  0  0  0  0  0  0  0  0  0  0  0
    2.3417   -0.0102    1.9171 N   0  0  0  0  0  0  0  0  0  0  0  0
    2.5686    0.8374    1.4093 H   0  0  0  0  0  0  0  0  0  0  0  0
    3.1592   -0.3770    3.0683 C   0  0  0  0  0  0  0  0  0  0  0  0
    3.5767   -1.3809    2.9372 H   0  0  0  0  0  0  0  0  0  0  0  0
    3.9875    0.3285    3.1840 H   0  0  0  0  0  0  0  0  0  0  0  0
    2.5603   -0.3611    3.9850 H   0  0  0  0  0  0  0  0  0  0  0  0
  1  2  1  0  0  0  0
  2  3  1  0  0  0  0
  2  4  1  0  0  0  0
  2  5  1  0  0  0  0
  5  6  2  0  0  0  0
  5  7  1  0  0  0  0
  7  8  1  0  0  0  0
  7  9  1  0  0  0  0
  9 10  1  0  0  0  0
  9 11  1  0  0  0  0
  9 16  1  0  0  0  0
 11 12  1  0  0  0  0
 11 13  1  0  0  0  0
 11 14  1  0  0  0  0
 14 15  1  0  0  0  0
 16 17  2  0  0  0  0
 16 18  1  0  0  0  0
 18 19  1  0  0  0  0
 18 20  1  0  0  0  0
 20 21  1  0  0  0  0
 20 22  1  0  0  0  0
 20 23  1  0  0  0  0
M  END
$$$$

  -OEChem-01062216093D

 23 22  0     1  0  0  0  0  0999 V2000
   -2.6114   -3.5850    1.1381 H   0  0  0  0  0  0  0  0  0  0  0  0
   -2.5593   -2.4958    1.0559 C   0  0  0  0  0  0  0  0  0  0  0  0
   -2.6045   -2.0668    2.0597 H   0  0  0  0  0  0  0  0  0  0  0  0
   -3.4133   -2.1429    0.4733 H   0  0  0  0  0  0  0  0  0  0  0  0
   -1.2634   -2.0889    0.3815 C   0  0  0  0  0  0  0  0  0  0  0  0
   -0.5613   -2.9302   -0.1543 O   0  0  0  0  0  0  0  0  0  0  0  0
   -0.9960   -0.7577    0.1388 N   0  0  0  0  0  0  0  0  0  0  0  0
   -1.7431   -0.1662    0.4914 H   0  0  0  0  0  0  0  0  0  0  0  0
    0.3345   -0.1538    0.3729 C   0  0  1  0  0  0  0  0  0  0  0  0
    0.9085   -0.3159   -0.5443 H   0  0  0  0  0  0  0  0  0  0  0  0
    0.0980    1.3588    0.5021 C   0  0  0  0  0  0  0  0  0  0  0  0
    1.0524    1.8937    0.5351 H   0  0  0  0  0  0  0  0  0  0  0  0
   -0.4413    1.7171   -0.3814 H   0  0  0  0  0  0  0  0  0  0  0  0
   -0.6698    1.6497    1.6757 O   0  0  0  0  0  0  0  0  0  0  0  0
   -0.8446    2.6051    1.7544 H   0  0  0  0  0  0  0  0  0  0  0  0
    1.2561   -0.7124    1.5036 C   0  0  0  0  0  0  0  0  0  0  0  0
    1.1676   -1.8478    1.9484 O   0  0  0  0  0  0  0  0  0  0  0  0
    2.1503    0.1267    2.1522 N   0  0  0  0  0  0  0  0  0  0  0  0
    2.1002    1.1135    1.9240 H   0  0  0  0  0  0  0  0  0  0  0  0
    2.9296   -0.2761    3.3183 C   0  0  0  0  0  0  0  0  0  0  0  0
    3.5450   -1.1516    3.0854 H   0  0  0  0  0  0  0  0  0  0  0  0
    3.5932    0.5365    3.6288 H   0  0  0  0  0  0  0  0  0  0  0  0
    2.2674   -0.5232    4.1549 H   0  0  0  0  0  0  0  0  0  0  0  0
  1  2  1  0  0  0  0
  2  3  1  0  0  0  0
  2  4  1  0  0  0  0
  2  5  1  0  0  0  0
  5  6  2  0  0  0  0
  5  7  1  0  0  0  0
  7  8  1  0  0  0  0
  7  9  1  0  0  0  0
  9 10  1  0  0  0  0
  9 11  1  0  0  0  0
  9 16  1  0  0  0  0
 11 12  1  0  0  0  0
 11 13  1  0  0  0  0
 11 14  1  0  0  0  0
 14 15  1  0  0  0  0
 16 17  2  0  0  0  0
 16 18  1  0  0  0  0
 18 19  1  0  0  0  0
 18 20  1  0  0  0  0
 20 21  1  0  0  0  0
 20 22  1  0  0  0  0
 20 23  1  0  0  0  0
M  END
$$$$

  -OEChem-01062216093D

 23 22  0     1  0  0  0  0  0999 V2000
   -2.6098   -3.5614    1.2170 H   0  0  0  0  0  0  0  0  0  0  0  0
   -2.5753   -2.4805    1.0542 C   0  0  0  0  0  0  0  0  0  0  0  0
   -2.6821   -1.9782    2.0186 H   0  0  0  0  0  0  0  0  0  0  0  0
   -3.4052   -2.1934    0.4043 H   0  0  0  0  0  0  0  0  0  0  0  0
   -1.2552   -2.0948    0.4143 C   0  0  0  0  0  0  0  0  0  0  0  0
   -0.5473   -2.9560   -0.0756 O   0  0  0  0  0  0  0  0  0  0  0  0
   -0.9799   -0.7678    0.1573 N   0  0  0  0  0  0  0  0  0  0  0  0
   -1.7413   -0.1683    0.4619 H   0  0  0  0  0  0  0  0  0  0  0  0
    0.3417   -0.1469    0.3958 C   0  0  1  0  0  0  0  0  0  0  0  0
    0.9315   -0.3288   -0.5079 H   0  0  0  0  0  0  0  0  0  0  0  0
    0.1153    1.3700    0.4853 C   0  0  0  0  0  0  0  0  0  0  0  0
    1.0764    1.8938    0.5191 H   0  0  0  0  0  0  0  0  0  0  0  0
   -0.4072    1.7093   -0.4156 H   0  0  0  0  0  0  0  0  0  0  0  0
   -0.6661    1.7013    1.6401 O   0  0  0  0  0  0  0  0  0  0  0  0
   -0.8732    2.6540    1.6592 H   0  0  0  0  0  0  0  0  0  0  0  0
    1.2403   -0.6911    1.5478 C   0  0  0  0  0  0  0  0  0  0  0  0
    1.4836   -1.8779    1.7008 O   0  0  0  0  0  0  0  0  0  0  0  0
    1.8792    0.1880    2.4082 N   0  0  0  0  0  0  0  0  0  0  0  0
    1.5146    1.1366    2.4154 H   0  0  0  0  0  0  0  0  0  0  0  0
    2.6869   -0.2501    3.5414 C   0  0  0  0  0  0  0  0  0  0  0  0
    3.5187   -0.8758    3.2007 H   0  0  0  0  0  0  0  0  0  0  0  0
    3.1014    0.6153    4.0670 H   0  0  0  0  0  0  0  0  0  0  0  0
    2.0780   -0.8266    4.2457 H   0  0  0  0  0  0  0  0  0  0  0  0
  1  2  1  0  0  0  0
  2  3  1  0  0  0  0
  2  4  1  0  0  0  0
  2  5  1  0  0  0  0
  5  6  2  0  0  0  0
  5  7  1  0  0  0  0
  7  8  1  0  0  0  0
  7  9  1  0  0  0  0
  9 10  1  0  0  0  0
  9 11  1  0  0  0  0
  9 16  1  0  0  0  0
 11 12  1  0  0  0  0
 11 13  1  0  0  0  0
 11 14  1  0  0  0  0
 14 15  1  0  0  0  0
 16 17  2  0  0  0  0
 16 18  1  0  0  0  0
 18 19  1  0  0  0  0
 18 20  1  0  0  0  0
 20 21  1  0  0  0  0
 20 22  1  0  0  0  0
 20 23  1  0  0  0  0
M  END
$$$$

  -OEChem-01062216093D

 23 22  0     1  0  0  0  0  0999 V2000
   -2.9326   -3.5490    1.0112 H   0  0  0  0  0  0  0  0  0  0  0  0
   -2.8216   -2.4920    0.7525 C   0  0  0  0  0  0  0  0  0  0  0  0
   -3.2823   -1.8892    1.5386 H   0  0  0  0  0  0  0  0  0  0  0  0
   -3.3366   -2.3053   -0.1928 H   0  0  0  0  0  0  0  0  0  0  0  0
   -1.3516   -2.1387    0.6205 C   0  0  0  0  0  0  0  0  0  0  0  0
   -0.5263   -3.0259    0.6959 O   0  0  0  0  0  0  0  0  0  0  0  0
   -1.0064   -0.8304    0.3426 N   0  0  0  0  0  0  0  0  0  0  0  0
   -1.7926   -0.1892    0.3807 H   0  0  0  0  0  0  0  0  0  0  0  0
    0.3194   -0.1947    0.5222 C   0  0  1  0  0  0  0  0  0  0  0  0
    0.8803   -0.3981   -0.3954 H   0  0  0  0  0  0  0  0  0  0  0  0
    0.0972    1.3262    0.5769 C   0  0  0  0  0  0  0  0  0  0  0  0
    1.0642    1.8404    0.5721 H   0  0  0  0  0  0  0  0  0  0  0  0
   -0.4447    1.6436   -0.3205 H   0  0  0  0  0  0  0  0  0  0  0  0
   -0.6480    1.7098    1.7418 O   0  0  0  0  0  0  0  0  0  0  0  0
   -0.8210    2.6695    1.7404 H   0  0  0  0  0  0  0  0  0  0  0  0
    1.2572   -0.7018    1.6542 C   0  0  0  0  0  0  0  0  0  0  0  0
    1.9420   -1.7026    1.4986 O   0  0  0  0  0  0  0  0  0  0  0  0
    1.6631    0.1639    2.6564 N   0  0  0  0  0  0  0  0  0  0  0  0
    1.0498    0.9612    2.8143 H   0  0  0  0  0  0  0  0  0  0  0  0
    2.6368   -0.1899    3.6827 C   0  0  0  0  0  0  0  0  0  0  0  0
    3.6071   -0.4171    3.2287 H   0  0  0  0  0  0  0  0  0  0  0  0
    2.7699    0.6431    4.3795 H   0  0  0  0  0  0  0  0  0  0  0  0
    2.2987   -1.0651    4.2474 H   0  0  0  0  0  0  0  0  0  0  0  0
  1  2  1  0  0  0  0
  2  3  1  0  0  0  0
  2  4  1  0  0  0  0
  2  5  1  0  0  0  0
  5  6  2  0  0  0  0
  5  7  1  0  0  0  0
  7  8  1  0  0  0  0
  7  9  1  0  0  0  0
  9 10  1  0  0  0  0
  9 11  1  0  0  0  0
  9 16  1  0  0  0  0
 11 12  1  0  0  0  0
 11 13  1  0  0  0  0
 11 14  1  0  0  0  0
 14 15  1  0  0  0  0
 16 17  2  0  0  0  0
 16 18  1  0  0  0  0
 18 19  1  0  0  0  0
 18 20  1  0  0  0  0
 20 21  1  0  0  0  0
 20 22  1  0  0  0  0
 20 23  1  0  0  0  0
M  END
$$$$

  -OEChem-01062216093D

 23 22  0     1  0  0  0  0  0999 V2000
   -2.9306   -3.5805    0.9510 H   0  0  0  0  0  0  0  0  0  0  0  0
   -2.8287   -2.5201    0.7025 C   0  0  0  0  0  0  0  0  0  0  0  0
   -3.3517   -1.9307    1.4593 H   0  0  0  0  0  0  0  0  0  0  0  0
   -3.2882   -2.3424   -0.2727 H   0  0  0  0  0  0  0  0  0  0  0  0
   -1.3625   -2.1312    0.6634 C   0  0  0  0  0  0  0  0  0  0  0  0
   -0.5209   -2.9836    0.8660 O   0  0  0  0  0  0  0  0  0  0  0  0
   -1.0276   -0.8234    0.3713 N   0  0  0  0  0  0  0  0  0  0  0  0
   -1.8176   -0.1871    0.3368 H   0  0  0  0  0  0  0  0  0  0  0  0
    0.3005   -0.1889    0.5290 C   0  0  1  0  0  0  0  0  0  0  0  0
    0.8478   -0.3943   -0.3965 H   0  0  0  0  0  0  0  0  0  0  0  0
    0.0908    1.3339    0.5890 C   0  0  0  0  0  0  0  0  0  0  0  0
    1.0659    1.8331    0.5756 H   0  0  0  0  0  0  0  0  0  0  0  0
   -0.4569    1.6591   -0.3017 H   0  0  0  0  0  0  0  0  0  0  0  0
   -0.6325    1.7342    1.7633 O   0  0  0  0  0  0  0  0  0  0  0  0
   -0.7640    2.7004    1.7722 H   0  0  0  0  0  0  0  0  0  0  0  0
    1.2413   -0.7017    1.6517 C   0  0  0  0  0  0  0  0  0  0  0  0
    2.0846   -1.5532    1.4029 O   0  0  0  0  0  0  0  0  0  0  0  0
    1.4209    0.0389    2.8065 N   0  0  0  0  0  0  0  0  0  0  0  0
    0.7167    0.7538    2.9843 H   0  0  0  0  0  0  0  0  0  0  0  0
    2.3666   -0.3129    3.8580 C   0  0  0  0  0  0  0  0  0  0  0  0
    3.3914   -0.2969    3.4726 H   0  0  0  0  0  0  0  0  0  0  0  0
    2.2969    0.4025    4.6829 H   0  0  0  0  0  0  0  0  0  0  0  0
    2.1515   -1.3138    4.2468 H   0  0  0  0  0  0  0  0  0  0  0  0
  1  2  1  0  0  0  0
  2  3  1  0  0  0  0
  2  4  1  0  0  0  0
  2  5  1  0  0  0  0
  5  6  2  0  0  0  0
  5  7  1  0  0  0  0
  7  8  1  0  0  0  0
  7  9  1  0  0  0  0
  9 10  1  0  0  0  0
  9 11  1  0  0  0  0
  9 16  1  0  0  0  0
 11 12  1  0  0  0  0
 11 13  1  0  0  0  0
 11 14  1  0  0  0  0
 14 15  1  0  0  0  0
 16 17  2  0  0  0  0
 16 18  1  0  0  0  0
 18 19  1  0  0  0  0
 18 20  1  0  0  0  0
 20 21  1  0  0  0  0
 20 22  1  0  0  0  0
 20 23  1  0  0  0  0
M  END
$$$$

  -OEChem-01062216093D

 23 22  0     1  0  0  0  0  0999 V2000
   -2.9245   -3.5924    0.9208 H   0  0  0  0  0  0  0  0  0  0  0  0
   -2.8314   -2.5294    0.6804 C   0  0  0  0  0  0  0  0  0  0  0  0
   -3.3644   -1.9501    1.4380 H   0  0  0  0  0  0  0  0  0  0  0  0
   -3.2866   -2.3489   -0.2963 H   0  0  0  0  0  0  0  0  0  0  0  0
   -1.3687   -2.1268    0.6530 C   0  0  0  0  0  0  0  0  0  0  0  0
   -0.5180   -2.9670    0.8731 O   0  0  0  0  0  0  0  0  0  0  0  0
   -1.0385   -0.8182    0.3594 N   0  0  0  0  0  0  0  0  0  0  0  0
   -1.8273   -0.1810    0.3123 H   0  0  0  0  0  0  0  0  0  0  0  0
    0.2923   -0.1931    0.5235 C   0  0  1  0  0  0  0  0  0  0  0  0
    0.8419   -0.3961   -0.4012 H   0  0  0  0  0  0  0  0  0  0  0  0
    0.0957    1.3296    0.5996 C   0  0  0  0  0  0  0  0  0  0  0  0
    1.0765    1.8174    0.5957 H   0  0  0  0  0  0  0  0  0  0  0  0
   -0.4454    1.6707   -0.2891 H   0  0  0  0  0  0  0  0  0  0  0  0
   -0.6250    1.7251    1.7775 O   0  0  0  0  0  0  0  0  0  0  0  0
   -0.7186    2.6951    1.8114 H   0  0  0  0  0  0  0  0  0  0  0  0
    1.2164   -0.7198    1.6510 C   0  0  0  0  0  0  0  0  0  0  0  0
    2.1878   -1.4099    1.3683 O   0  0  0  0  0  0  0  0  0  0  0  0
    1.1664   -0.1673    2.9175 N   0  0  0  0  0  0  0  0  0  0  0  0
    0.4086    0.4923    3.0878 H   0  0  0  0  0  0  0  0  0  0  0  0
    2.0971   -0.4949    3.9893 C   0  0  0  0  0  0  0  0  0  0  0  0
    3.1152   -0.1978    3.7170 H   0  0  0  0  0  0  0  0  0  0  0  0
    1.8166    0.0303    4.9072 H   0  0  0  0  0  0  0  0  0  0  0  0
    2.0857   -1.5715    4.1897 H   0  0  0  0  0  0  0  0  0  0  0  0
  1  2  1  0  0  0  0
  2  3  1  0  0  0  0
  2  4  1  0  0  0  0
  2  5  1  0  0  0  0
  5  6  2  0  0  0  0
  5  7  1  0  0  0  0
  7  8  1  0  0  0  0
  7  9  1  0  0  0  0
  9 10  1  0  0  0  0
  9 11  1  0  0  0  0
  9 16  1  0  0  0  0
 11 12  1  0  0  0  0
 11 13  1  0  0  0  0
 11 14  1  0  0  0  0
 14 15  1  0  0  0  0
 16 17  2  0  0  0  0
 16 18  1  0  0  0  0
 18 19  1  0  0  0  0
 18 20  1  0  0  0  0
 20 21  1  0  0  0  0
 20 22  1  0  0  0  0
 20 23  1  0  0  0  0
M  END
$$$$

  -OEChem-01062216093D

 23 22  0     1  0  0  0  0  0999 V2000
   -2.9209   -3.5979    0.9070 H   0  0  0  0  0  0  0  0  0  0  0  0
   -2.8335   -2.5340    0.6685 C   0  0  0  0  0  0  0  0  0  0  0  0
   -3.3626   -1.9587    1.4319 H   0  0  0  0  0  0  0  0  0  0  0  0
   -3.2971   -2.3529   -0.3041 H   0  0  0  0  0  0  0  0  0  0  0  0
   -1.3724   -2.1264    0.6299 C   0  0  0  0  0  0  0  0  0  0  0  0
   -0.5146   -2.9647    0.8329 O   0  0  0  0  0  0  0  0  0  0  0  0
   -1.0450   -0.8166    0.3384 N   0  0  0  0  0  0  0  0  0  0  0  0
   -1.8319   -0.1761    0.3041 H   0  0  0  0  0  0  0  0  0  0  0  0
    0.2893   -0.2011    0.5085 C   0  0  1  0  0  0  0  0  0  0  0  0
    0.8398   -0.3953   -0.4177 H   0  0  0  0  0  0  0  0  0  0  0  0
    0.1056    1.3198    0.6146 C   0  0  0  0  0  0  0  0  0  0  0  0
    1.0908    1.7986    0.6199 H   0  0  0  0  0  0  0  0  0  0  0  0
   -0.4347    1.6849   -0.2650 H   0  0  0  0  0  0  0  0  0  0  0  0
   -0.6072    1.6934    1.8042 O   0  0  0  0  0  0  0  0  0  0  0  0
   -0.6613    2.6641    1.8786 H   0  0  0  0  0  0  0  0  0  0  0  0
    1.2012   -0.7410    1.6365 C   0  0  0  0  0  0  0  0  0  0  0  0
    2.2838   -1.2408    1.3556 O   0  0  0  0  0  0  0  0  0  0  0  0
    0.9446   -0.4216    2.9568 N   0  0  0  0  0  0  0  0  0  0  0  0
    0.1328    0.1710    3.1209 H   0  0  0  0  0  0  0  0  0  0  0  0
    1.8480   -0.7290    4.0569 C   0  0  0  0  0  0  0  0  0  0  0  0
    2.7945   -0.1918    3.9377 H   0  0  0  0  0  0  0  0  0  0  0  0
    1.3978   -0.4337    5.0093 H   0  0  0  0  0  0  0  0  0  0  0  0
    2.0544   -1.8040    4.0922 H   0  0  0  0  0  0  0  0  0  0  0  0
  1  2  1  0  0  0  0
  2  3  1  0  0  0  0
  2  4  1  0  0  0  0
  2  5  1  0  0  0  0
  5  6  2  0  0  0  0
  5  7  1  0  0  0  0
  7  8  1  0  0  0  0
  7  9  1  0  0  0  0
  9 10  1  0  0  0  0
  9 11  1  0  0  0  0
  9 16  1  0  0  0  0
 11 12  1  0  0  0  0
 11 13  1  0  0  0  0
 11 14  1  0  0  0  0
 14 15  1  0  0  0  0
 16 17  2  0  0  0  0
 16 18  1  0  0  0  0
 18 19  1  0  0  0  0
 18 20  1  0  0  0  0
 20 21  1  0  0  0  0
 20 22  1  0  0  0  0
 20 23  1  0  0  0  0
M  END
$$$$

  -OEChem-01062216093D

 23 22  0     1  0  0  0  0  0999 V2000
   -2.9187   -3.5954    0.9099 H   0  0  0  0  0  0  0  0  0  0  0  0
   -2.8334   -2.5330    0.6640 C   0  0  0  0  0  0  0  0  0  0  0  0
   -3.3569   -1.9531    1.4278 H   0  0  0  0  0  0  0  0  0  0  0  0
   -3.3052   -2.3585   -0.3059 H   0  0  0  0  0  0  0  0  0  0  0  0
   -1.3730   -2.1248    0.6114 C   0  0  0  0  0  0  0  0  0  0  0  0
   -0.5106   -2.9621    0.8022 O   0  0  0  0  0  0  0  0  0  0  0  0
   -1.0471   -0.8155    0.3161 N   0  0  0  0  0  0  0  0  0  0  0  0
   -1.8329   -0.1731    0.2876 H   0  0  0  0  0  0  0  0  0  0  0  0
    0.2892   -0.2042    0.4867 C   0  0  1  0  0  0  0  0  0  0  0  0
    0.8391   -0.3902   -0.4414 H   0  0  0  0  0  0  0  0  0  0  0  0
    0.1085    1.3128    0.6205 C   0  0  0  0  0  0  0  0  0  0  0  0
    1.0941    1.7910    0.6305 H   0  0  0  0  0  0  0  0  0  0  0  0
   -0.4375    1.6980   -0.2469 H   0  0  0  0  0  0  0  0  0  0  0  0
   -0.5953    1.6526    1.8246 O   0  0  0  0  0  0  0  0  0  0  0  0
   -0.6112    2.6190    1.9496 H   0  0  0  0  0  0  0  0  0  0  0  0
    1.1999   -0.7413    1.6147 C   0  0  0  0  0  0  0  0  0  0  0  0
    2.3660   -1.0245    1.3667 O   0  0  0  0  0  0  0  0  0  0  0  0
    0.7903   -0.6859    2.9343 N   0  0  0  0  0  0  0  0  0  0  0  0
   -0.1103   -0.2452    3.1037 H   0  0  0  0  0  0  0  0  0  0  0  0
    1.6522   -1.0151    4.0609 C   0  0  0  0  0  0  0  0  0  0  0  0
    2.4984   -0.3223    4.1116 H   0  0  0  0  0  0  0  0  0  0  0  0
    1.0913   -0.9495    4.9979 H   0  0  0  0  0  0  0  0  0  0  0  0
    2.0372   -2.0355    3.9609 H   0  0  0  0  0  0  0  0  0  0  0  0
  1  2  1  0  0  0  0
  2  3  1  0  0  0  0
  2  4  1  0  0  0  0
  2  5  1  0  0  0  0
  5  6  2  0  0  0  0
  5  7  1  0  0  0  0
  7  8  1  0  0  0  0
  7  9  1  0  0  0  0
  9 10  1  0  0  0  0
  9 11  1  0  0  0  0
  9 16  1  0  0  0  0
 11 12  1  0  0  0  0
 11 13  1  0  0  0  0
 11 14  1  0  0  0  0
 14 15  1  0  0  0  0
 16 17  2  0  0  0  0
 16 18  1  0  0  0  0
 18 19  1  0  0  0  0
 18 20  1  0  0  0  0
 20 21  1  0  0  0  0
 20 22  1  0  0  0  0
 20 23  1  0  0  0  0
M  END
$$$$

  -OEChem-01062216093D

 23 22  0     1  0  0  0  0  0999 V2000
   -2.9214   -3.5897    0.9115 H   0  0  0  0  0  0  0  0  0  0  0  0
   -2.8338   -2.5328    0.6436 C   0  0  0  0  0  0  0  0  0  0  0  0
   -3.3925   -1.9385    1.3706 H   0  0  0  0  0  0  0  0  0  0  0  0
   -3.2667   -2.3853   -0.3489 H   0  0  0  0  0  0  0  0  0  0  0  0
   -1.3754   -2.1142    0.6401 C   0  0  0  0  0  0  0  0  0  0  0  0
   -0.5149   -2.9369    0.8944 O   0  0  0  0  0  0  0  0  0  0  0  0
   -1.0466   -0.8113    0.3232 N   0  0  0  0  0  0  0  0  0  0  0  0
   -1.8332   -0.1739    0.2434 H   0  0  0  0  0  0  0  0  0  0  0  0
    0.2845   -0.1858    0.4904 C   0  0  1  0  0  0  0  0  0  0  0  0
    0.8392   -0.3821   -0.4326 H   0  0  0  0  0  0  0  0  0  0  0  0
    0.0867    1.3298    0.6005 C   0  0  0  0  0  0  0  0  0  0  0  0
    1.0664    1.8201    0.6097 H   0  0  0  0  0  0  0  0  0  0  0  0
   -0.4604    1.6990   -0.2732 H   0  0  0  0  0  0  0  0  0  0  0  0
   -0.6261    1.6694    1.7978 O   0  0  0  0  0  0  0  0  0  0  0  0
   -0.6118    2.6324    1.9446 H   0  0  0  0  0  0  0  0  0  0  0  0
    1.2091   -0.6746    1.6289 C   0  0  0  0  0  0  0  0  0  0  0  0
    2.4181   -0.7210    1.4335 O   0  0  0  0  0  0  0  0  0  0  0  0
    0.7280   -0.8867    2.9081 N   0  0  0  0  0  0  0  0  0  0  0  0
   -0.2783   -0.8337    3.0269 H   0  0  0  0  0  0  0  0  0  0  0  0
    1.5526   -1.3740    4.0049 C   0  0  0  0  0  0  0  0  0  0  0  0
    2.3955   -0.6976    4.1822 H   0  0  0  0  0  0  0  0  0  0  0  0
    0.9616   -1.4357    4.9235 H   0  0  0  0  0  0  0  0  0  0  0  0
    1.9423   -2.3710    3.7738 H   0  0  0  0  0  0  0  0  0  0  0  0
  1  2  1  0  0  0  0
  2  3  1  0  0  0  0
  2  4  1  0  0  0  0
  2  5  1  0  0  0  0
  5  6  2  0  0  0  0
  5  7  1  0  0  0  0
  7  8  1  0  0  0  0
  7  9  1  0  0  0  0
  9 10  1  0  0  0  0
  9 11  1  0  0  0  0
  9 16  1  0  0  0  0
 11 12  1  0  0  0  0
 11 13  1  0  0  0  0
 11 14  1  0  0  0  0
 14 15  1  0  0  0  0
 16 17  2  0  0  0  0
 16 18  1  0  0  0  0
 18 19  1  0  0  0  0
 18 20  1  0  0  0  0
 20 21  1  0  0  0  0
 20 22  1  0  0  0  0
 20 23  1  0  0  0  0
M  END
$$$$

  -OEChem-01062216093D

 23 22  0     1  0  0  0  0  0999 V2000
   -3.0182   -3.5533    0.8349 H   0  0  0  0  0  0  0  0  0  0  0  0
   -2.8971   -2.4975    0.5757 C   0  0  0  0  0  0  0  0  0  0  0  0
   -3.4690   -1.8939    1.2846 H   0  0  0  0  0  0  0  0  0  0  0  0
   -3.2900   -2.3365   -0.4313 H   0  0  0  0  0  0  0  0  0  0  0  0
   -1.4309   -2.1109    0.6283 C   0  0  0  0  0  0  0  0  0  0  0  0
   -0.6014   -2.9446    0.9427 O   0  0  0  0  0  0  0  0  0  0  0  0
   -1.0604   -0.8181    0.3207 N   0  0  0  0  0  0  0  0  0  0  0  0
   -1.8318   -0.1664    0.2097 H   0  0  0  0  0  0  0  0  0  0  0  0
    0.2759   -0.2060    0.5099 C   0  0  1  0  0  0  0  0  0  0  0  0
    0.8406   -0.4078   -0.4055 H   0  0  0  0  0  0  0  0  0  0  0  0
    0.0791    1.3108    0.6116 C   0  0  0  0  0  0  0  0  0  0  0  0
    1.0579    1.8023    0.6367 H   0  0  0  0  0  0  0  0  0  0  0  0
   -0.4528    1.6788   -0.2717 H   0  0  0  0  0  0  0  0  0  0  0  0
   -0.6543    1.6510    1.7951 O   0  0  0  0  0  0  0  0  0  0  0  0
   -0.6090    2.6088    1.9648 H   0  0  0  0  0  0  0  0  0  0  0  0
    1.2033   -0.6755    1.6573 C   0  0  0  0  0  0  0  0  0  0  0  0
    2.4060   -0.4580    1.5574 O   0  0  0  0  0  0  0  0  0  0  0  0
    0.7120   -1.1669    2.8532 N   0  0  0  0  0  0  0  0  0  0  0  0
   -0.2358   -1.5284    2.8046 H   0  0  0  0  0  0  0  0  0  0  0  0
    1.5796   -1.6608    3.9139 C   0  0  0  0  0  0  0  0  0  0  0  0
    2.2833   -0.8832    4.2291 H   0  0  0  0  0  0  0  0  0  0  0  0
    0.9828   -1.9552    4.7822 H   0  0  0  0  0  0  0  0  0  0  0  0
    2.1468   -2.5316    3.5687 H   0  0  0  0  0  0  0  0  0  0  0  0
  1  2  1  0  0  0  0
  2  3  1  0  0  0  0
  2  4  1  0  0  0  0
  2  5  1  0  0  0  0
  5  6  2  0  0  0  0
  5  7  1  0  0  0  0
  7  8  1  0  0  0  0
  7  9  1  0  0  0  0
  9 10  1  0  0  0  0
  9 11  1  0  0  0  0
  9 16  1  0  0  0  0
 11 12  1  0  0  0  0
 11 13  1  0  0  0  0
 11 14  1  0  0  0  0
 14 15  1  0  0  0  0
 16 17  2  0  0  0  0
 16 18  1  0  0  0  0
 18 19  1  0  0  0  0
 18 20  1  0  0  0  0
 20 21  1  0  0  0  0
 20 22  1  0  0  0  0
 20 23  1  0  0  0  0
M  END
$$$$

  -OEChem-01062216093D

 23 22  0     1  0  0  0  0  0999 V2000
   -3.1059   -3.5015    0.7899 H   0  0  0  0  0  0  0  0  0  0  0  0
   -2.9519   -2.4475    0.5415 C   0  0  0  0  0  0  0  0  0  0  0  0
   -3.4956   -1.8332    1.2633 H   0  0  0  0  0  0  0  0  0  0  0  0
   -3.3495   -2.2610   -0.4591 H   0  0  0  0  0  0  0  0  0  0  0  0
   -1.4733   -2.1108    0.5818 C   0  0  0  0  0  0  0  0  0  0  0  0
   -0.6669   -2.9816    0.8554 O   0  0  0  0  0  0  0  0  0  0  0  0
   -1.0656   -0.8244    0.2982 N   0  0  0  0  0  0  0  0  0  0  0  0
   -1.8247   -0.1525    0.2292 H   0  0  0  0  0  0  0  0  0  0  0  0
    0.2760   -0.2301    0.5140 C   0  0  1  0  0  0  0  0  0  0  0  0
    0.8496   -0.4256   -0.3967 H   0  0  0  0  0  0  0  0  0  0  0  0
    0.0698    1.2865    0.6229 C   0  0  0  0  0  0  0  0  0  0  0  0
    1.0430    1.7878    0.6653 H   0  0  0  0  0  0  0  0  0  0  0  0
   -0.4517    1.6577   -0.2653 H   0  0  0  0  0  0  0  0  0  0  0  0
   -0.6856    1.6097    1.7971 O   0  0  0  0  0  0  0  0  0  0  0  0
   -0.6297    2.5622    1.9909 H   0  0  0  0  0  0  0  0  0  0  0  0
    1.2030   -0.7010    1.6656 C   0  0  0  0  0  0  0  0  0  0  0  0
    2.3570   -0.2852    1.6837 O   0  0  0  0  0  0  0  0  0  0  0  0
    0.7621   -1.4629    2.7321 N   0  0  0  0  0  0  0  0  0  0  0  0
   -0.0562   -2.0318    2.5194 H   0  0  0  0  0  0  0  0  0  0  0  0
    1.6590   -1.9390    3.7772 C   0  0  0  0  0  0  0  0  0  0  0  0
    2.1588   -1.0973    4.2682 H   0  0  0  0  0  0  0  0  0  0  0  0
    1.0945   -2.4911    4.5344 H   0  0  0  0  0  0  0  0  0  0  0  0
    2.4196   -2.6042    3.3554 H   0  0  0  0  0  0  0  0  0  0  0  0
  1  2  1  0  0  0  0
  2  3  1  0  0  0  0
  2  4  1  0  0  0  0
  2  5  1  0  0  0  0
  5  6  2  0  0  0  0
  5  7  1  0  0  0  0
  7  8  1  0  0  0  0
  7  9  1  0  0  0  0
  9 10  1  0  0  0  0
  9 11  1  0  0  0  0
  9 16  1  0  0  0  0
 11 12  1  0  0  0  0
 11 13  1  0  0  0  0
 11 14  1  0  0  0  0
 14 15  1  0  0  0  0
 16 17  2  0  0  0  0
 16 18  1  0  0  0  0
 18 19  1  0  0  0  0
 18 20  1  0  0  0  0
 20 21  1  0  0  0  0
 20 22  1  0  0  0  0
 20 23  1  0  0  0  0
M  END
$$$$

  -OEChem-01062216093D

 23 22  0     1  0  0  0  0  0999 V2000
   -3.1383   -3.4632    0.7993 H   0  0  0  0  0  0  0  0  0  0  0  0
   -2.9706   -2.4105    0.5539 C   0  0  0  0  0  0  0  0  0  0  0  0
   -3.4609   -1.7916    1.3094 H   0  0  0  0  0  0  0  0  0  0  0  0
   -3.4144   -2.2020   -0.4227 H   0  0  0  0  0  0  0  0  0  0  0  0
   -1.4838   -2.1107    0.5219 C   0  0  0  0  0  0  0  0  0  0  0  0
   -0.6857   -3.0178    0.6810 O   0  0  0  0  0  0  0  0  0  0  0  0
   -1.0597   -0.8241    0.2644 N   0  0  0  0  0  0  0  0  0  0  0  0
   -1.8139   -0.1424    0.2623 H   0  0  0  0  0  0  0  0  0  0  0  0
    0.2813   -0.2390    0.5122 C   0  0  1  0  0  0  0  0  0  0  0  0
    0.8696   -0.4264   -0.3908 H   0  0  0  0  0  0  0  0  0  0  0  0
    0.0601    1.2770    0.6226 C   0  0  0  0  0  0  0  0  0  0  0  0
    1.0254    1.7906    0.6854 H   0  0  0  0  0  0  0  0  0  0  0  0
   -0.4470    1.6469   -0.2746 H   0  0  0  0  0  0  0  0  0  0  0  0
   -0.7243    1.5856    1.7819 O   0  0  0  0  0  0  0  0  0  0  0  0
   -0.6647    2.5344    1.9934 H   0  0  0  0  0  0  0  0  0  0  0  0
    1.1995   -0.7172    1.6726 C   0  0  0  0  0  0  0  0  0  0  0  0
    2.2796   -0.1561    1.8263 O   0  0  0  0  0  0  0  0  0  0  0  0
    0.8603   -1.7147    2.5680 N   0  0  0  0  0  0  0  0  0  0  0  0
    0.1335   -2.3490    2.2345 H   0  0  0  0  0  0  0  0  0  0  0  0
    1.7784   -2.2127    3.5842 C   0  0  0  0  0  0  0  0  0  0  0  0
    2.1045   -1.3986    4.2399 H   0  0  0  0  0  0  0  0  0  0  0  0
    1.2834   -2.9705    4.1987 H   0  0  0  0  0  0  0  0  0  0  0  0
    2.6593   -2.6646    3.1166 H   0  0  0  0  0  0  0  0  0  0  0  0
  1  2  1  0  0  0  0
  2  3  1  0  0  0  0
  2  4  1  0  0  0  0
  2  5  1  0  0  0  0
  5  6  2  0  0  0  0
  5  7  1  0  0  0  0
  7  8  1  0  0  0  0
  7  9  1  0  0  0  0
  9 10  1  0  0  0  0
  9 11  1  0  0  0  0
  9 16  1  0  0  0  0
 11 12  1  0  0  0  0
 11 13  1  0  0  0  0
 11 14  1  0  0  0  0
 14 15  1  0  0  0  0
 16 17  2  0  0  0  0
 16 18  1  0  0  0  0
 18 19  1  0  0  0  0
 18 20  1  0  0  0  0
 20 21  1  0  0  0  0
 20 22  1  0  0  0  0
 20 23  1  0  0  0  0
M  END
$$$$

  -OEChem-01062216093D

 23 22  0     1  0  0  0  0  0999 V2000
   -3.2016   -3.4181    0.9985 H   0  0  0  0  0  0  0  0  0  0  0  0
   -3.0178   -2.3708    0.7422 C   0  0  0  0  0  0  0  0  0  0  0  0
   -3.4097   -1.7394    1.5434 H   0  0  0  0  0  0  0  0  0  0  0  0
   -3.5440   -2.1384   -0.1869 H   0  0  0  0  0  0  0  0  0  0  0  0
   -1.5303   -2.1268    0.5704 C   0  0  0  0  0  0  0  0  0  0  0  0
   -0.7564   -3.0667    0.6326 O   0  0  0  0  0  0  0  0  0  0  0  0
   -1.0871   -0.8588    0.2592 N   0  0  0  0  0  0  0  0  0  0  0  0
   -1.8242   -0.1601    0.3098 H   0  0  0  0  0  0  0  0  0  0  0  0
    0.2703   -0.2913    0.4533 C   0  0  1  0  0  0  0  0  0  0  0  0
    0.8323   -0.5211   -0.4564 H   0  0  0  0  0  0  0  0  0  0  0  0
    0.0609    1.2307    0.5040 C   0  0  0  0  0  0  0  0  0  0  0  0
    1.0289    1.7426    0.5215 H   0  0  0  0  0  0  0  0  0  0  0  0
   -0.4654    1.5659   -0.3957 H   0  0  0  0  0  0  0  0  0  0  0  0
   -0.6966    1.5894    1.6670 O   0  0  0  0  0  0  0  0  0  0  0  0
   -0.5921    2.5376    1.8634 H   0  0  0  0  0  0  0  0  0  0  0  0
    1.2138   -0.7442    1.6076 C   0  0  0  0  0  0  0  0  0  0  0  0
    2.2119   -0.0726    1.8490 O   0  0  0  0  0  0  0  0  0  0  0  0
    1.0283   -1.8868    2.3632 N   0  0  0  0  0  0  0  0  0  0  0  0
    0.3528   -2.5534    1.9854 H   0  0  0  0  0  0  0  0  0  0  0  0
    1.9918   -2.3686    3.3447 C   0  0  0  0  0  0  0  0  0  0  0  0
    2.1757   -1.6066    4.1092 H   0  0  0  0  0  0  0  0  0  0  0  0
    1.6070   -3.2653    3.8395 H   0  0  0  0  0  0  0  0  0  0  0  0
    2.9408   -2.6189    2.8595 H   0  0  0  0  0  0  0  0  0  0  0  0
  1  2  1  0  0  0  0
  2  3  1  0  0  0  0
  2  4  1  0  0  0  0
  2  5  1  0  0  0  0
  5  6  2  0  0  0  0
  5  7  1  0  0  0  0
  7  8  1  0  0  0  0
  7  9  1  0  0  0  0
  9 10  1  0  0  0  0
  9 11  1  0  0  0  0
  9 16  1  0  0  0  0
 11 12  1  0  0  0  0
 11 13  1  0  0  0  0
 11 14  1  0  0  0  0
 14 15  1  0  0  0  0
 16 17  2  0  0  0  0
 16 18  1  0  0  0  0
 18 19  1  0  0  0  0
 18 20  1  0  0  0  0
 20 21  1  0  0  0  0
 20 22  1  0  0  0  0
 20 23  1  0  0  0  0
M  END
$$$$

  -OEChem-01062216093D

 23 22  0     1  0  0  0  0  0999 V2000
   -2.6438   -3.6692    1.3798 H   0  0  0  0  0  0  0  0  0  0  0  0
   -2.5972   -2.5810    1.2797 C   0  0  0  0  0  0  0  0  0  0  0  0
   -2.6759   -2.1327    2.2730 H   0  0  0  0  0  0  0  0  0  0  0  0
   -3.4386   -2.2472    0.6676 H   0  0  0  0  0  0  0  0  0  0  0  0
   -1.2892   -2.1730    0.6290 C   0  0  0  0  0  0  0  0  0  0  0  0
   -0.5358   -3.0283    0.2008 O   0  0  0  0  0  0  0  0  0  0  0  0
   -1.0394   -0.8430    0.3779 N   0  0  0  0  0  0  0  0  0  0  0  0
   -1.7562   -0.2342    0.7637 H   0  0  0  0  0  0  0  0  0  0  0  0
    0.2917   -0.1960    0.3252 C   0  0  1  0  0  0  0  0  0  0  0  0
    0.6259   -0.2801   -0.7131 H   0  0  0  0  0  0  0  0  0  0  0  0
    0.0107    1.2856    0.6192 C   0  0  0  0  0  0  0  0  0  0  0  0
    0.9208    1.8790    0.4803 H   0  0  0  0  0  0  0  0  0  0  0  0
   -0.7356    1.6706   -0.0836 H   0  0  0  0  0  0  0  0  0  0  0  0
   -0.4675    1.4384    1.9631 O   0  0  0  0  0  0  0  0  0  0  0  0
   -0.4554    2.3771    2.2235 H   0  0  0  0  0  0  0  0  0  0  0  0
    1.5291   -0.6580    1.1576 C   0  0  0  0  0  0  0  0  0  0  0  0
    2.5410    0.0280    1.1059 O   0  0  0  0  0  0  0  0  0  0  0  0
    1.8577   -1.9150    1.6085 N   0  0  0  0  0  0  0  0  0  0  0  0
    2.8660   -1.9935    1.7073 H   0  0  0  0  0  0  0  0  0  0  0  0
    1.0986   -2.5316    2.6886 C   0  0  0  0  0  0  0  0  0  0  0  0
    0.2027   -1.9519    2.9328 H   0  0  0  0  0  0  0  0  0  0  0  0
    0.7984   -3.5470    2.4116 H   0  0  0  0  0  0  0  0  0  0  0  0
    1.7166   -2.5883    3.5899 H   0  0  0  0  0  0  0  0  0  0  0  0
  1  2  1  0  0  0  0
  2  3  1  0  0  0  0
  2  4  1  0  0  0  0
  2  5  1  0  0  0  0
  5  6  2  0  0  0  0
  5  7  1  0  0  0  0
  7  8  1  0  0  0  0
  7  9  1  0  0  0  0
  9 10  1  0  0  0  0
  9 11  1  0  0  0  0
  9 16  1  0  0  0  0
 11 12  1  0  0  0  0
 11 13  1  0  0  0  0
 11 14  1  0  0  0  0
 14 15  1  0  0  0  0
 16 17  2  0  0  0  0
 16 18  1  0  0  0  0
 18 19  1  0  0  0  0
 18 20  1  0  0  0  0
 20 21  1  0  0  0  0
 20 22  1  0  0  0  0
 20 23  1  0  0  0  0
M  END
$$$$

  -OEChem-01062216093D

 23 22  0     1  0  0  0  0  0999 V2000
   -3.0655   -3.4574    0.8920 H   0  0  0  0  0  0  0  0  0  0  0  0
   -2.9187   -2.3864    0.7262 C   0  0  0  0  0  0  0  0  0  0  0  0
   -3.2625   -1.8439    1.6105 H   0  0  0  0  0  0  0  0  0  0  0  0
   -3.5152   -2.0792   -0.1364 H   0  0  0  0  0  0  0  0  0  0  0  0
   -1.4522   -2.0911    0.4744 C   0  0  0  0  0  0  0  0  0  0  0  0
   -0.6595   -3.0138    0.3917 O   0  0  0  0  0  0  0  0  0  0  0  0
   -1.0608   -0.7949    0.2116 N   0  0  0  0  0  0  0  0  0  0  0  0
   -1.8191   -0.1245    0.3234 H   0  0  0  0  0  0  0  0  0  0  0  0
    0.2797   -0.1856    0.3890 C   0  0  1  0  0  0  0  0  0  0  0  0
    0.8267   -0.3557   -0.5427 H   0  0  0  0  0  0  0  0  0  0  0  0
    0.0309    1.3269    0.5082 C   0  0  0  0  0  0  0  0  0  0  0  0
    0.9802    1.8734    0.5066 H   0  0  0  0  0  0  0  0  0  0  0  0
   -0.5453    1.6736   -0.3559 H   0  0  0  0  0  0  0  0  0  0  0  0
   -0.6955    1.6094    1.7082 O   0  0  0  0  0  0  0  0  0  0  0  0
   -0.1103    1.4417    2.4754 H   0  0  0  0  0  0  0  0  0  0  0  0
    1.2423   -0.6914    1.5072 C   0  0  0  0  0  0  0  0  0  0  0  0
    1.7912    0.1207    2.2460 O   0  0  0  0  0  0  0  0  0  0  0  0
    1.4747   -2.0262    1.7702 N   0  0  0  0  0  0  0  0  0  0  0  0
    0.9268   -2.6975    1.2254 H   0  0  0  0  0  0  0  0  0  0  0  0
    2.3000   -2.5189    2.8656 C   0  0  0  0  0  0  0  0  0  0  0  0
    1.8900   -2.1999    3.8294 H   0  0  0  0  0  0  0  0  0  0  0  0
    2.3326   -3.6125    2.8482 H   0  0  0  0  0  0  0  0  0  0  0  0
    3.3239   -2.1418    2.7738 H   0  0  0  0  0  0  0  0  0  0  0  0
  1  2  1  0  0  0  0
  2  3  1  0  0  0  0
  2  4  1  0  0  0  0
  2  5  1  0  0  0  0
  5  6  2  0  0  0  0
  5  7  1  0  0  0  0
  7  8  1  0  0  0  0
  7  9  1  0  0  0  0
  9 10  1  0  0  0  0
  9 11  1  0  0  0  0
  9 16  1  0  0  0  0
 11 12  1  0  0  0  0
 11 13  1  0  0  0  0
 11 14  1  0  0  0  0
 14 15  1  0  0  0  0
 16 17  2  0  0  0  0
 16 18  1  0  0  0  0
 18 19  1  0  0  0  0
 18 20  1  0  0  0  0
 20 21  1  0  0  0  0
 20 22  1  0  0  0  0
 20 23  1  0  0  0  0
M  END
$$$$

  -OEChem-01062216093D

 23 22  0     1  0  0  0  0  0999 V2000
   -2.9516   -3.4824    1.0068 H   0  0  0  0  0  0  0  0  0  0  0  0
   -2.8475   -2.4158    0.7879 C   0  0  0  0  0  0  0  0  0  0  0  0
   -3.1972   -1.8449    1.6517 H   0  0  0  0  0  0  0  0  0  0  0  0
   -3.4683   -2.1716   -0.0775 H   0  0  0  0  0  0  0  0  0  0  0  0
   -1.3972   -2.0802    0.4967 C   0  0  0  0  0  0  0  0  0  0  0  0
   -0.5777   -2.9785    0.4057 O   0  0  0  0  0  0  0  0  0  0  0  0
   -1.0465   -0.7759    0.2158 N   0  0  0  0  0  0  0  0  0  0  0  0
   -1.8136   -0.1197    0.3498 H   0  0  0  0  0  0  0  0  0  0  0  0
    0.2892   -0.1534    0.3667 C   0  0  1  0  0  0  0  0  0  0  0  0
    0.8252   -0.3182   -0.5723 H   0  0  0  0  0  0  0  0  0  0  0  0
    0.0357    1.3571    0.4930 C   0  0  0  0  0  0  0  0  0  0  0  0
    0.9859    1.9019    0.4814 H   0  0  0  0  0  0  0  0  0  0  0  0
   -0.5544    1.7064   -0.3607 H   0  0  0  0  0  0  0  0  0  0  0  0
   -0.6678    1.6353    1.7074 O   0  0  0  0  0  0  0  0  0  0  0  0
   -0.0828    1.4097    2.4620 H   0  0  0  0  0  0  0  0  0  0  0  0
    1.2557   -0.6655    1.4757 C   0  0  0  0  0  0  0  0  0  0  0  0
    1.6347    0.0981    2.3599 O   0  0  0  0  0  0  0  0  0  0  0  0
    1.7038   -1.9704    1.5222 N   0  0  0  0  0  0  0  0  0  0  0  0
    1.1805   -2.6282    0.9372 H   0  0  0  0  0  0  0  0  0  0  0  0
    2.4927   -2.5108    2.6221 C   0  0  0  0  0  0  0  0  0  0  0  0
    1.9293   -2.4592    3.5596 H   0  0  0  0  0  0  0  0  0  0  0  0
    2.7438   -3.5574    2.4248 H   0  0  0  0  0  0  0  0  0  0  0  0
    3.4258   -1.9495    2.7385 H   0  0  0  0  0  0  0  0  0  0  0  0
  1  2  1  0  0  0  0
  2  3  1  0  0  0  0
  2  4  1  0  0  0  0
  2  5  1  0  0  0  0
  5  6  2  0  0  0  0
  5  7  1  0  0  0  0
  7  8  1  0  0  0  0
  7  9  1  0  0  0  0
  9 10  1  0  0  0  0
  9 11  1  0  0  0  0
  9 16  1  0  0  0  0
 11 12  1  0  0  0  0
 11 13  1  0  0  0  0
 11 14  1  0  0  0  0
 14 15  1  0  0  0  0
 16 17  2  0  0  0  0
 16 18  1  0  0  0  0
 18 19  1  0  0  0  0
 18 20  1  0  0  0  0
 20 21  1  0  0  0  0
 20 22  1  0  0  0  0
 20 23  1  0  0  0  0
M  END
$$$$

  -OEChem-01062216093D

 23 22  0     1  0  0  0  0  0999 V2000
   -2.8373   -3.5152    1.0605 H   0  0  0  0  0  0  0  0  0  0  0  0
   -2.7767   -2.4490    0.8238 C   0  0  0  0  0  0  0  0  0  0  0  0
   -3.1431   -1.8783    1.6808 H   0  0  0  0  0  0  0  0  0  0  0  0
   -3.4119   -2.2437   -0.0413 H   0  0  0  0  0  0  0  0  0  0  0  0
   -1.3421   -2.0629    0.5177 C   0  0  0  0  0  0  0  0  0  0  0  0
   -0.4847   -2.9278    0.4428 O   0  0  0  0  0  0  0  0  0  0  0  0
   -1.0359   -0.7523    0.2138 N   0  0  0  0  0  0  0  0  0  0  0  0
   -1.8133   -0.1103    0.3571 H   0  0  0  0  0  0  0  0  0  0  0  0
    0.2941   -0.1212    0.3579 C   0  0  1  0  0  0  0  0  0  0  0  0
    0.8358   -0.2874   -0.5778 H   0  0  0  0  0  0  0  0  0  0  0  0
    0.0434    1.3898    0.4804 C   0  0  0  0  0  0  0  0  0  0  0  0
    0.9974    1.9278    0.4699 H   0  0  0  0  0  0  0  0  0  0  0  0
   -0.5440    1.7414   -0.3742 H   0  0  0  0  0  0  0  0  0  0  0  0
   -0.6556    1.6755    1.6954 O   0  0  0  0  0  0  0  0  0  0  0  0
   -0.0926    1.3911    2.4489 H   0  0  0  0  0  0  0  0  0  0  0  0
    1.2371   -0.6414    1.4796 C   0  0  0  0  0  0  0  0  0  0  0  0
    1.4517    0.0414    2.4784 O   0  0  0  0  0  0  0  0  0  0  0  0
    1.8974   -1.8476    1.3512 N   0  0  0  0  0  0  0  0  0  0  0  0
    1.4397   -2.5006    0.7097 H   0  0  0  0  0  0  0  0  0  0  0  0
    2.7068   -2.4183    2.4207 C   0  0  0  0  0  0  0  0  0  0  0  0
    2.0913   -2.6136    3.3050 H   0  0  0  0  0  0  0  0  0  0  0  0
    3.1519   -3.3623    2.0917 H   0  0  0  0  0  0  0  0  0  0  0  0
    3.5167   -1.7351    2.6970 H   0  0  0  0  0  0  0  0  0  0  0  0
  1  2  1  0  0  0  0
  2  3  1  0  0  0  0
  2  4  1  0  0  0  0
  2  5  1  0  0  0  0
  5  6  2  0  0  0  0
  5  7  1  0  0  0  0
  7  8  1  0  0  0  0
  7  9  1  0  0  0  0
  9 10  1  0  0  0  0
  9 11  1  0  0  0  0
  9 16  1  0  0  0  0
 11 12  1  0  0  0  0
 11 13  1  0  0  0  0
 11 14  1  0  0  0  0
 14 15  1  0  0  0  0
 16 17  2  0  0  0  0
 16 18  1  0  0  0  0
 18 19  1  0  0  0  0
 18 20  1  0  0  0  0
 20 21  1  0  0  0  0
 20 22  1  0  0  0  0
 20 23  1  0  0  0  0
M  END
$$$$

  -OEChem-01062216093D

 23 22  0     1  0  0  0  0  0999 V2000
   -2.7570   -3.5361    1.0949 H   0  0  0  0  0  0  0  0  0  0  0  0
   -2.7274   -2.4716    0.8459 C   0  0  0  0  0  0  0  0  0  0  0  0
   -3.1129   -1.9018    1.6949 H   0  0  0  0  0  0  0  0  0  0  0  0
   -3.3658   -2.2951   -0.0232 H   0  0  0  0  0  0  0  0  0  0  0  0
   -1.3040   -2.0461    0.5397 C   0  0  0  0  0  0  0  0  0  0  0  0
   -0.4140   -2.8804    0.4897 O   0  0  0  0  0  0  0  0  0  0  0  0
   -1.0344   -0.7323    0.2147 N   0  0  0  0  0  0  0  0  0  0  0  0
   -1.8193   -0.1004    0.3608 H   0  0  0  0  0  0  0  0  0  0  0  0
    0.2923   -0.0980    0.3518 C   0  0  1  0  0  0  0  0  0  0  0  0
    0.8356   -0.2653   -0.5828 H   0  0  0  0  0  0  0  0  0  0  0  0
    0.0488    1.4139    0.4754 C   0  0  0  0  0  0  0  0  0  0  0  0
    1.0076    1.9429    0.4639 H   0  0  0  0  0  0  0  0  0  0  0  0
   -0.5375    1.7706   -0.3778 H   0  0  0  0  0  0  0  0  0  0  0  0
   -0.6433    1.7072    1.6926 O   0  0  0  0  0  0  0  0  0  0  0  0
   -0.1136    1.3542    2.4430 H   0  0  0  0  0  0  0  0  0  0  0  0
    1.2150   -0.6265    1.4837 C   0  0  0  0  0  0  0  0  0  0  0  0
    1.2565   -0.0577    2.5725 O   0  0  0  0  0  0  0  0  0  0  0  0
    2.0885   -1.6683    1.2368 N   0  0  0  0  0  0  0  0  0  0  0  0
    1.7741   -2.2983    0.4978 H   0  0  0  0  0  0  0  0  0  0  0  0
    2.9284   -2.2394    2.2824 C   0  0  0  0  0  0  0  0  0  0  0  0
    2.3110   -2.6616    3.0823 H   0  0  0  0  0  0  0  0  0  0  0  0
    3.5541   -3.0363    1.8690 H   0  0  0  0  0  0  0  0  0  0  0  0
    3.5852   -1.4742    2.7094 H   0  0  0  0  0  0  0  0  0  0  0  0
  1  2  1  0  0  0  0
  2  3  1  0  0  0  0
  2  4  1  0  0  0  0
  2  5  1  0  0  0  0
  5  6  2  0  0  0  0
  5  7  1  0  0  0  0
  7  8  1  0  0  0  0
  7  9  1  0  0  0  0
  9 10  1  0  0  0  0
  9 11  1  0  0  0  0
  9 16  1  0  0  0  0
 11 12  1  0  0  0  0
 11 13  1  0  0  0  0
 11 14  1  0  0  0  0
 14 15  1  0  0  0  0
 16 17  2  0  0  0  0
 16 18  1  0  0  0  0
 18 19  1  0  0  0  0
 18 20  1  0  0  0  0
 20 21  1  0  0  0  0
 20 22  1  0  0  0  0
 20 23  1  0  0  0  0
M  END
$$$$

  -OEChem-01062216093D

 23 22  0     1  0  0  0  0  0999 V2000
   -2.6091   -3.6289    1.0704 H   0  0  0  0  0  0  0  0  0  0  0  0
   -2.6286   -2.5514    0.8838 C   0  0  0  0  0  0  0  0  0  0  0  0
   -2.9535   -2.0437    1.7954 H   0  0  0  0  0  0  0  0  0  0  0  0
   -3.3432   -2.3442    0.0837 H   0  0  0  0  0  0  0  0  0  0  0  0
   -1.2475   -2.0654    0.4870 C   0  0  0  0  0  0  0  0  0  0  0  0
   -0.3427   -2.8664    0.3054 O   0  0  0  0  0  0  0  0  0  0  0  0
   -1.0321   -0.7261    0.2348 N   0  0  0  0  0  0  0  0  0  0  0  0
   -1.8103   -0.1344    0.5173 H   0  0  0  0  0  0  0  0  0  0  0  0
    0.2871   -0.1001    0.4348 C   0  0  1  0  0  0  0  0  0  0  0  0
    0.8433   -0.2492   -0.4948 H   0  0  0  0  0  0  0  0  0  0  0  0
    0.0632    1.4147    0.5588 C   0  0  0  0  0  0  0  0  0  0  0  0
    1.0381    1.9116    0.5992 H   0  0  0  0  0  0  0  0  0  0  0  0
   -0.4632    1.7878   -0.3259 H   0  0  0  0  0  0  0  0  0  0  0  0
   -0.6794    1.7500    1.7362 O   0  0  0  0  0  0  0  0  0  0  0  0
   -0.5469    2.6817    1.9827 H   0  0  0  0  0  0  0  0  0  0  0  0
    1.1945   -0.6938    1.5460 C   0  0  0  0  0  0  0  0  0  0  0  0
    1.0447   -0.4118    2.7289 O   0  0  0  0  0  0  0  0  0  0  0  0
    2.2758   -1.4792    1.1860 N   0  0  0  0  0  0  0  0  0  0  0  0
    2.1859   -1.9290    0.2779 H   0  0  0  0  0  0  0  0  0  0  0  0
    3.1184   -2.1383    2.1766 C   0  0  0  0  0  0  0  0  0  0  0  0
    2.5308   -2.8490    2.7670 H   0  0  0  0  0  0  0  0  0  0  0  0
    3.9274   -2.6829    1.6805 H   0  0  0  0  0  0  0  0  0  0  0  0
    3.5654   -1.4026    2.8535 H   0  0  0  0  0  0  0  0  0  0  0  0
  1  2  1  0  0  0  0
  2  3  1  0  0  0  0
  2  4  1  0  0  0  0
  2  5  1  0  0  0  0
  5  6  2  0  0  0  0
  5  7  1  0  0  0  0
  7  8  1  0  0  0  0
  7  9  1  0  0  0  0
  9 10  1  0  0  0  0
  9 11  1  0  0  0  0
  9 16  1  0  0  0  0
 11 12  1  0  0  0  0
 11 13  1  0  0  0  0
 11 14  1  0  0  0  0
 14 15  1  0  0  0  0
 16 17  2  0  0  0  0
 16 18  1  0  0  0  0
 18 19  1  0  0  0  0
 18 20  1  0  0  0  0
 20 21  1  0  0  0  0
 20 22  1  0  0  0  0
 20 23  1  0  0  0  0
M  END
$$$$

  -OEChem-01062216093D

 23 22  0     1  0  0  0  0  0999 V2000
   -2.5173   -3.6343    1.1547 H   0  0  0  0  0  0  0  0  0  0  0  0
   -2.5686   -2.5627    0.9431 C   0  0  0  0  0  0  0  0  0  0  0  0
   -2.8685   -2.0398    1.8547 H   0  0  0  0  0  0  0  0  0  0  0  0
   -3.3172   -2.3902    0.1665 H   0  0  0  0  0  0  0  0  0  0  0  0
   -1.2153   -2.0581    0.4812 C   0  0  0  0  0  0  0  0  0  0  0  0
   -0.3105   -2.8466    0.2508 O   0  0  0  0  0  0  0  0  0  0  0  0
   -1.0308   -0.7166    0.2143 N   0  0  0  0  0  0  0  0  0  0  0  0
   -1.8098   -0.1422    0.5273 H   0  0  0  0  0  0  0  0  0  0  0  0
    0.2824   -0.0770    0.4103 C   0  0  1  0  0  0  0  0  0  0  0  0
    0.8375   -0.2284   -0.5194 H   0  0  0  0  0  0  0  0  0  0  0  0
    0.0684    1.4368    0.5468 C   0  0  0  0  0  0  0  0  0  0  0  0
    1.0451    1.9309    0.5798 H   0  0  0  0  0  0  0  0  0  0  0  0
   -0.4670    1.8165   -0.3297 H   0  0  0  0  0  0  0  0  0  0  0  0
   -0.6618    1.7653    1.7328 O   0  0  0  0  0  0  0  0  0  0  0  0
   -0.6144    2.7178    1.9246 H   0  0  0  0  0  0  0  0  0  0  0  0
    1.1819   -0.6649    1.5287 C   0  0  0  0  0  0  0  0  0  0  0  0
    0.8208   -0.6744    2.7001 O   0  0  0  0  0  0  0  0  0  0  0  0
    2.4278   -1.1783    1.2108 N   0  0  0  0  0  0  0  0  0  0  0  0
    2.5815   -1.3843    0.2283 H   0  0  0  0  0  0  0  0  0  0  0  0
    3.2437   -1.8899    2.1872 C   0  0  0  0  0  0  0  0  0  0  0  0
    2.7230   -2.7873    2.5381 H   0  0  0  0  0  0  0  0  0  0  0  0
    4.1936   -2.1925    1.7366 H   0  0  0  0  0  0  0  0  0  0  0  0
    3.4610   -1.2486    3.0480 H   0  0  0  0  0  0  0  0  0  0  0  0
  1  2  1  0  0  0  0
  2  3  1  0  0  0  0
  2  4  1  0  0  0  0
  2  5  1  0  0  0  0
  5  6  2  0  0  0  0
  5  7  1  0  0  0  0
  7  8  1  0  0  0  0
  7  9  1  0  0  0  0
  9 10  1  0  0  0  0
  9 11  1  0  0  0  0
  9 16  1  0  0  0  0
 11 12  1  0  0  0  0
 11 13  1  0  0  0  0
 11 14  1  0  0  0  0
 14 15  1  0  0  0  0
 16 17  2  0  0  0  0
 16 18  1  0  0  0  0
 18 19  1  0  0  0  0
 18 20  1  0  0  0  0
 20 21  1  0  0  0  0
 20 22  1  0  0  0  0
 20 23  1  0  0  0  0
M  END
$$$$

  -OEChem-01062216093D

 23 22  0     1  0  0  0  0  0999 V2000
   -2.5362   -3.6362    1.1206 H   0  0  0  0  0  0  0  0  0  0  0  0
   -2.5691   -2.5550    0.9608 C   0  0  0  0  0  0  0  0  0  0  0  0
   -2.8174   -2.0683    1.9073 H   0  0  0  0  0  0  0  0  0  0  0  0
   -3.3446   -2.3287    0.2255 H   0  0  0  0  0  0  0  0  0  0  0  0
   -1.2234   -2.0609    0.4662 C   0  0  0  0  0  0  0  0  0  0  0  0
   -0.3303   -2.8550    0.2109 O   0  0  0  0  0  0  0  0  0  0  0  0
   -1.0357   -0.7216    0.1897 N   0  0  0  0  0  0  0  0  0  0  0  0
   -1.8108   -0.1465    0.5101 H   0  0  0  0  0  0  0  0  0  0  0  0
    0.2799   -0.0879    0.3928 C   0  0  1  0  0  0  0  0  0  0  0  0
    0.8398   -0.2450   -0.5332 H   0  0  0  0  0  0  0  0  0  0  0  0
    0.0732    1.4248    0.5409 C   0  0  0  0  0  0  0  0  0  0  0  0
    1.0508    1.9166    0.5779 H   0  0  0  0  0  0  0  0  0  0  0  0
   -0.4621    1.8126   -0.3320 H   0  0  0  0  0  0  0  0  0  0  0  0
   -0.6567    1.7402    1.7306 O   0  0  0  0  0  0  0  0  0  0  0  0
   -0.6422    2.6960    1.9121 H   0  0  0  0  0  0  0  0  0  0  0  0
    1.1696   -0.6686    1.5220 C   0  0  0  0  0  0  0  0  0  0  0  0
    0.7174   -0.8815    2.6421 O   0  0  0  0  0  0  0  0  0  0  0  0
    2.5151   -0.9012    1.2910 N   0  0  0  0  0  0  0  0  0  0  0  0
    2.8162   -0.8937    0.3217 H   0  0  0  0  0  0  0  0  0  0  0  0
    3.3712   -1.5589    2.2709 C   0  0  0  0  0  0  0  0  0  0  0  0
    3.0147   -2.5755    2.4682 H   0  0  0  0  0  0  0  0  0  0  0  0
    4.3981   -1.6168    1.8977 H   0  0  0  0  0  0  0  0  0  0  0  0
    3.3790   -0.9994    3.2122 H   0  0  0  0  0  0  0  0  0  0  0  0
  1  2  1  0  0  0  0
  2  3  1  0  0  0  0
  2  4  1  0  0  0  0
  2  5  1  0  0  0  0
  5  6  2  0  0  0  0
  5  7  1  0  0  0  0
  7  8  1  0  0  0  0
  7  9  1  0  0  0  0
  9 10  1  0  0  0  0
  9 11  1  0  0  0  0
  9 16  1  0  0  0  0
 11 12  1  0  0  0  0
 11 13  1  0  0  0  0
 11 14  1  0  0  0  0
 14 15  1  0  0  0  0
 16 17  2  0  0  0  0
 16 18  1  0  0  0  0
 18 19  1  0  0  0  0
 18 20  1  0  0  0  0
 20 21  1  0  0  0  0
 20 22  1  0  0  0  0
 20 23  1  0  0  0  0
M  END
$$$$

  -OEChem-01062216093D

 23 22  0     1  0  0  0  0  0999 V2000
   -2.5634   -3.6278    1.1146 H   0  0  0  0  0  0  0  0  0  0  0  0
   -2.5861   -2.5453    0.9610 C   0  0  0  0  0  0  0  0  0  0  0  0
   -2.8077   -2.0608    1.9152 H   0  0  0  0  0  0  0  0  0  0  0  0
   -3.3740   -2.3056    0.2434 H   0  0  0  0  0  0  0  0  0  0  0  0
   -1.2445   -2.0655    0.4417 C   0  0  0  0  0  0  0  0  0  0  0  0
   -0.3721   -2.8693    0.1479 O   0  0  0  0  0  0  0  0  0  0  0  0
   -1.0418   -0.7274    0.1701 N   0  0  0  0  0  0  0  0  0  0  0  0
   -1.8088   -0.1480    0.5012 H   0  0  0  0  0  0  0  0  0  0  0  0
    0.2805   -0.1099    0.3843 C   0  0  1  0  0  0  0  0  0  0  0  0
    0.8439   -0.2678   -0.5395 H   0  0  0  0  0  0  0  0  0  0  0  0
    0.0838    1.4020    0.5489 C   0  0  0  0  0  0  0  0  0  0  0  0
    1.0627    1.8907    0.5924 H   0  0  0  0  0  0  0  0  0  0  0  0
   -0.4490    1.8025   -0.3199 H   0  0  0  0  0  0  0  0  0  0  0  0
   -0.6477    1.7026    1.7415 O   0  0  0  0  0  0  0  0  0  0  0  0
   -0.6557    2.6592    1.9198 H   0  0  0  0  0  0  0  0  0  0  0  0
    1.1663   -0.6940    1.5156 C   0  0  0  0  0  0  0  0  0  0  0  0
    0.6802   -1.0835    2.5726 O   0  0  0  0  0  0  0  0  0  0  0  0
    2.5460   -0.6461    1.4011 N   0  0  0  0  0  0  0  0  0  0  0  0
    2.9273   -0.4232    0.4875 H   0  0  0  0  0  0  0  0  0  0  0  0
    3.4390   -1.2027    2.4104 C   0  0  0  0  0  0  0  0  0  0  0  0
    3.2667   -2.2785    2.5226 H   0  0  0  0  0  0  0  0  0  0  0  0
    4.4822   -1.0467    2.1198 H   0  0  0  0  0  0  0  0  0  0  0  0
    3.2751   -0.7167    3.3781 H   0  0  0  0  0  0  0  0  0  0  0  0
  1  2  1  0  0  0  0
  2  3  1  0  0  0  0
  2  4  1  0  0  0  0
  2  5  1  0  0  0  0
  5  6  2  0  0  0  0
  5  7  1  0  0  0  0
  7  8  1  0  0  0  0
  7  9  1  0  0  0  0
  9 10  1  0  0  0  0
  9 11  1  0  0  0  0
  9 16  1  0  0  0  0
 11 12  1  0  0  0  0
 11 13  1  0  0  0  0
 11 14  1  0  0  0  0
 14 15  1  0  0  0  0
 16 17  2  0  0  0  0
 16 18  1  0  0  0  0
 18 19  1  0  0  0  0
 18 20  1  0  0  0  0
 20 21  1  0  0  0  0
 20 22  1  0  0  0  0
 20 23  1  0  0  0  0
M  END
$$$$

  -OEChem-01062216093D

 23 22  0     1  0  0  0  0  0999 V2000
   -2.6037   -3.6175    1.0871 H   0  0  0  0  0  0  0  0  0  0  0  0
   -2.6016   -2.5309    0.9644 C   0  0  0  0  0  0  0  0  0  0  0  0
   -2.7838   -2.0676    1.9373 H   0  0  0  0  0  0  0  0  0  0  0  0
   -3.4019   -2.2503    0.2760 H   0  0  0  0  0  0  0  0  0  0  0  0
   -1.2621   -2.0720    0.4217 C   0  0  0  0  0  0  0  0  0  0  0  0
   -0.4179   -2.8888    0.0853 O   0  0  0  0  0  0  0  0  0  0  0  0
   -1.0387   -0.7363    0.1553 N   0  0  0  0  0  0  0  0  0  0  0  0
   -1.7961   -0.1501    0.4959 H   0  0  0  0  0  0  0  0  0  0  0  0
    0.2910   -0.1353    0.3773 C   0  0  1  0  0  0  0  0  0  0  0  0
    0.8566   -0.2928   -0.5454 H   0  0  0  0  0  0  0  0  0  0  0  0
    0.0926    1.3756    0.5532 C   0  0  0  0  0  0  0  0  0  0  0  0
    1.0687    1.8694    0.6023 H   0  0  0  0  0  0  0  0  0  0  0  0
   -0.4408    1.7817   -0.3126 H   0  0  0  0  0  0  0  0  0  0  0  0
   -0.6430    1.6598    1.7477 O   0  0  0  0  0  0  0  0  0  0  0  0
   -0.6821    2.6170    1.9196 H   0  0  0  0  0  0  0  0  0  0  0  0
    1.1802   -0.7183    1.5085 C   0  0  0  0  0  0  0  0  0  0  0  0
    0.6978   -1.2751    2.4894 O   0  0  0  0  0  0  0  0  0  0  0  0
    2.5296   -0.4049    1.5424 N   0  0  0  0  0  0  0  0  0  0  0  0
    2.9317    0.0212    0.7141 H   0  0  0  0  0  0  0  0  0  0  0  0
    3.4248   -0.8640    2.5982 C   0  0  0  0  0  0  0  0  0  0  0  0
    3.4515   -1.9585    2.6281 H   0  0  0  0  0  0  0  0  0  0  0  0
    4.4400   -0.4972    2.4196 H   0  0  0  0  0  0  0  0  0  0  0  0
    3.0912   -0.4932    3.5733 H   0  0  0  0  0  0  0  0  0  0  0  0
  1  2  1  0  0  0  0
  2  3  1  0  0  0  0
  2  4  1  0  0  0  0
  2  5  1  0  0  0  0
  5  6  2  0  0  0  0
  5  7  1  0  0  0  0
  7  8  1  0  0  0  0
  7  9  1  0  0  0  0
  9 10  1  0  0  0  0
  9 11  1  0  0  0  0
  9 16  1  0  0  0  0
 11 12  1  0  0  0  0
 11 13  1  0  0  0  0
 11 14  1  0  0  0  0
 14 15  1  0  0  0  0
 16 17  2  0  0  0  0
 16 18  1  0  0  0  0
 18 19  1  0  0  0  0
 18 20  1  0  0  0  0
 20 21  1  0  0  0  0
 20 22  1  0  0  0  0
 20 23  1  0  0  0  0
M  END
$$$$

  -OEChem-01062216093D

 23 22  0     1  0  0  0  0  0999 V2000
   -2.6612   -3.5576    1.1477 H   0  0  0  0  0  0  0  0  0  0  0  0
   -2.6041   -2.4703    1.0468 C   0  0  0  0  0  0  0  0  0  0  0  0
   -2.6172   -2.0253    2.0448 H   0  0  0  0  0  0  0  0  0  0  0  0
   -3.4715   -2.1193    0.4833 H   0  0  0  0  0  0  0  0  0  0  0  0
   -1.3250   -2.0827    0.3307 C   0  0  0  0  0  0  0  0  0  0  0  0
   -0.6525   -2.9298   -0.2355 O   0  0  0  0  0  0  0  0  0  0  0  0
   -1.0307   -0.7554    0.0992 N   0  0  0  0  0  0  0  0  0  0  0  0
   -1.7525   -0.1606    0.4951 H   0  0  0  0  0  0  0  0  0  0  0  0
    0.3198   -0.2000    0.3396 C   0  0  1  0  0  0  0  0  0  0  0  0
    0.7843   -0.1094   -0.6460 H   0  0  0  0  0  0  0  0  0  0  0  0
    0.1101    1.2185    0.8916 C   0  0  0  0  0  0  0  0  0  0  0  0
    1.0721    1.7341    0.9742 H   0  0  0  0  0  0  0  0  0  0  0  0
   -0.5114    1.7955    0.1987 H   0  0  0  0  0  0  0  0  0  0  0  0
   -0.5207    1.1746    2.1757 O   0  0  0  0  0  0  0  0  0  0  0  0
   -0.5599    2.0584    2.5822 H   0  0  0  0  0  0  0  0  0  0  0  0
    1.3656   -0.9793    1.1923 C   0  0  0  0  0  0  0  0  0  0  0  0
    1.0619   -1.8996    1.9417 O   0  0  0  0  0  0  0  0  0  0  0  0
    2.6213   -0.4224    1.3861 N   0  0  0  0  0  0  0  0  0  0  0  0
    2.8785    0.3711    0.8095 H   0  0  0  0  0  0  0  0  0  0  0  0
    3.6161   -0.9776    2.2976 C   0  0  0  0  0  0  0  0  0  0  0  0
    3.8580   -2.0088    2.0193 H   0  0  0  0  0  0  0  0  0  0  0  0
    4.5353   -0.3853    2.2614 H   0  0  0  0  0  0  0  0  0  0  0  0
    3.2406   -0.9694    3.3263 H   0  0  0  0  0  0  0  0  0  0  0  0
  1  2  1  0  0  0  0
  2  3  1  0  0  0  0
  2  4  1  0  0  0  0
  2  5  1  0  0  0  0
  5  6  2  0  0  0  0
  5  7  1  0  0  0  0
  7  8  1  0  0  0  0
  7  9  1  0  0  0  0
  9 10  1  0  0  0  0
  9 11  1  0  0  0  0
  9 16  1  0  0  0  0
 11 12  1  0  0  0  0
 11 13  1  0  0  0  0
 11 14  1  0  0  0  0
 14 15  1  0  0  0  0
 16 17  2  0  0  0  0
 16 18  1  0  0  0  0
 18 19  1  0  0  0  0
 18 20  1  0  0  0  0
 20 21  1  0  0  0  0
 20 22  1  0  0  0  0
 20 23  1  0  0  0  0
M  END
$$$$

  -OEChem-01062216093D

 23 22  0     1  0  0  0  0  0999 V2000
   -2.6413   -3.5514    1.1656 H   0  0  0  0  0  0  0  0  0  0  0  0
   -2.5557   -2.4633    1.0980 C   0  0  0  0  0  0  0  0  0  0  0  0
   -2.4874   -2.0544    2.1092 H   0  0  0  0  0  0  0  0  0  0  0  0
   -3.4474   -2.0668    0.6073 H   0  0  0  0  0  0  0  0  0  0  0  0
   -1.3154   -2.0899    0.3093 C   0  0  0  0  0  0  0  0  0  0  0  0
   -0.7234   -2.9359   -0.3402 O   0  0  0  0  0  0  0  0  0  0  0  0
   -1.0080   -0.7653    0.0818 N   0  0  0  0  0  0  0  0  0  0  0  0
   -1.7273   -0.1717    0.4835 H   0  0  0  0  0  0  0  0  0  0  0  0
    0.3384   -0.2016    0.3329 C   0  0  1  0  0  0  0  0  0  0  0  0
    0.8133   -0.1142   -0.6482 H   0  0  0  0  0  0  0  0  0  0  0  0
    0.0960    1.2220    0.8603 C   0  0  0  0  0  0  0  0  0  0  0  0
    1.0426    1.7643    0.9453 H   0  0  0  0  0  0  0  0  0  0  0  0
   -0.5285    1.7729    0.1490 H   0  0  0  0  0  0  0  0  0  0  0  0
   -0.5570    1.1824    2.1336 O   0  0  0  0  0  0  0  0  0  0  0  0
   -0.6661    2.0769    2.5034 H   0  0  0  0  0  0  0  0  0  0  0  0
    1.3944   -0.9613    1.1976 C   0  0  0  0  0  0  0  0  0  0  0  0
    1.2098   -2.0719    1.6758 O   0  0  0  0  0  0  0  0  0  0  0  0
    2.5118   -0.2833    1.6638 N   0  0  0  0  0  0  0  0  0  0  0  0
    2.6454    0.6727    1.3538 H   0  0  0  0  0  0  0  0  0  0  0  0
    3.4683   -0.8532    2.6070 C   0  0  0  0  0  0  0  0  0  0  0  0
    3.9043   -1.7727    2.2022 H   0  0  0  0  0  0  0  0  0  0  0  0
    4.2782   -0.1435    2.8001 H   0  0  0  0  0  0  0  0  0  0  0  0
    2.9773   -1.0849    3.5581 H   0  0  0  0  0  0  0  0  0  0  0  0
  1  2  1  0  0  0  0
  2  3  1  0  0  0  0
  2  4  1  0  0  0  0
  2  5  1  0  0  0  0
  5  6  2  0  0  0  0
  5  7  1  0  0  0  0
  7  8  1  0  0  0  0
  7  9  1  0  0  0  0
  9 10  1  0  0  0  0
  9 11  1  0  0  0  0
  9 16  1  0  0  0  0
 11 12  1  0  0  0  0
 11 13  1  0  0  0  0
 11 14  1  0  0  0  0
 14 15  1  0  0  0  0
 16 17  2  0  0  0  0
 16 18  1  0  0  0  0
 18 19  1  0  0  0  0
 18 20  1  0  0  0  0
 20 21  1  0  0  0  0
 20 22  1  0  0  0  0
 20 23  1  0  0  0  0
M  END
$$$$

  -OEChem-01062216093D

 23 22  0     1  0  0  0  0  0999 V2000
   -2.9896   -3.6209    0.8683 H   0  0  0  0  0  0  0  0  0  0  0  0
   -2.8369   -2.5967    0.5159 C   0  0  0  0  0  0  0  0  0  0  0  0
   -3.6669   -1.9768    0.8632 H   0  0  0  0  0  0  0  0  0  0  0  0
   -2.8229   -2.6024   -0.5764 H   0  0  0  0  0  0  0  0  0  0  0  0
   -1.5242   -2.0534    1.0496 C   0  0  0  0  0  0  0  0  0  0  0  0
   -0.9578   -2.6749    1.9281 O   0  0  0  0  0  0  0  0  0  0  0  0
   -1.1268   -0.7873    0.6578 N   0  0  0  0  0  0  0  0  0  0  0  0
   -1.7889   -0.3361    0.0375 H   0  0  0  0  0  0  0  0  0  0  0  0
    0.2431   -0.2078    0.6541 C   0  0  1  0  0  0  0  0  0  0  0  0
    0.5880   -0.2349   -0.3834 H   0  0  0  0  0  0  0  0  0  0  0  0
    0.1296    1.2754    1.0555 C   0  0  0  0  0  0  0  0  0  0  0  0
    1.0890    1.7843    0.9165 H   0  0  0  0  0  0  0  0  0  0  0  0
   -0.5905    1.7659    0.3927 H   0  0  0  0  0  0  0  0  0  0  0  0
   -0.3109    1.4243    2.4093 O   0  0  0  0  0  0  0  0  0  0  0  0
   -0.5122    2.3532    2.6185 H   0  0  0  0  0  0  0  0  0  0  0  0
    1.3817   -0.9158    1.4414 C   0  0  0  0  0  0  0  0  0  0  0  0
    1.6930   -2.0536    1.1094 O   0  0  0  0  0  0  0  0  0  0  0  0
    2.4184   -0.1715    1.9851 N   0  0  0  0  0  0  0  0  0  0  0  0
    2.1398    0.7359    2.3473 H   0  0  0  0  0  0  0  0  0  0  0  0
    3.6180   -0.7848    2.5466 C   0  0  0  0  0  0  0  0  0  0  0  0
    4.1805   -1.3117    1.7686 H   0  0  0  0  0  0  0  0  0  0  0  0
    4.2676   -0.0181    2.9791 H   0  0  0  0  0  0  0  0  0  0  0  0
    3.3511   -1.4985    3.3334 H   0  0  0  0  0  0  0  0  0  0  0  0
  1  2  1  0  0  0  0
  2  3  1  0  0  0  0
  2  4  1  0  0  0  0
  2  5  1  0  0  0  0
  5  6  2  0  0  0  0
  5  7  1  0  0  0  0
  7  8  1  0  0  0  0
  7  9  1  0  0  0  0
  9 10  1  0  0  0  0
  9 11  1  0  0  0  0
  9 16  1  0  0  0  0
 11 12  1  0  0  0  0
 11 13  1  0  0  0  0
 11 14  1  0  0  0  0
 14 15  1  0  0  0  0
 16 17  2  0  0  0  0
 16 18  1  0  0  0  0
 18 19  1  0  0  0  0
 18 20  1  0  0  0  0
 20 21  1  0  0  0  0
 20 22  1  0  0  0  0
 20 23  1  0  0  0  0
M  END
$$$$

  -OEChem-01062216093D

 23 22  0     1  0  0  0  0  0999 V2000
   -3.0138   -3.6028    0.8969 H   0  0  0  0  0  0  0  0  0  0  0  0
   -2.8636   -2.5736    0.5583 C   0  0  0  0  0  0  0  0  0  0  0  0
   -3.6400   -1.9420    0.9962 H   0  0  0  0  0  0  0  0  0  0  0  0
   -2.9492   -2.5480   -0.5306 H   0  0  0  0  0  0  0  0  0  0  0  0
   -1.4929   -2.0804    0.9830 C   0  0  0  0  0  0  0  0  0  0  0  0
   -0.8355   -2.7754    1.7334 O   0  0  0  0  0  0  0  0  0  0  0  0
   -1.1070   -0.8060    0.6069 N   0  0  0  0  0  0  0  0  0  0  0  0
   -1.8068   -0.3069    0.0699 H   0  0  0  0  0  0  0  0  0  0  0  0
    0.2532   -0.2080    0.6174 C   0  0  1  0  0  0  0  0  0  0  0  0
    0.6061   -0.2260   -0.4177 H   0  0  0  0  0  0  0  0  0  0  0  0
    0.1282    1.2732    1.0217 C   0  0  0  0  0  0  0  0  0  0  0  0
    1.0909    1.7796    0.8937 H   0  0  0  0  0  0  0  0  0  0  0  0
   -0.5858    1.7640    0.3522 H   0  0  0  0  0  0  0  0  0  0  0  0
   -0.3234    1.4226    2.3735 O   0  0  0  0  0  0  0  0  0  0  0  0
   -0.5201    2.3539    2.5784 H   0  0  0  0  0  0  0  0  0  0  0  0
    1.3843   -0.9180    1.4103 C   0  0  0  0  0  0  0  0  0  0  0  0
    1.8447   -1.9573    0.9515 O   0  0  0  0  0  0  0  0  0  0  0  0
    2.2334   -0.1930    2.2310 N   0  0  0  0  0  0  0  0  0  0  0  0
    1.7930    0.6070    2.6800 H   0  0  0  0  0  0  0  0  0  0  0  0
    3.3928   -0.7909    2.8834 C   0  0  0  0  0  0  0  0  0  0  0  0
    4.1228   -1.1262    2.1390 H   0  0  0  0  0  0  0  0  0  0  0  0
    3.8784   -0.0590    3.5356 H   0  0  0  0  0  0  0  0  0  0  0  0
    3.0892   -1.6506    3.4902 H   0  0  0  0  0  0  0  0  0  0  0  0
  1  2  1  0  0  0  0
  2  3  1  0  0  0  0
  2  4  1  0  0  0  0
  2  5  1  0  0  0  0
  5  6  2  0  0  0  0
  5  7  1  0  0  0  0
  7  8  1  0  0  0  0
  7  9  1  0  0  0  0
  9 10  1  0  0  0  0
  9 11  1  0  0  0  0
  9 16  1  0  0  0  0
 11 12  1  0  0  0  0
 11 13  1  0  0  0  0
 11 14  1  0  0  0  0
 14 15  1  0  0  0  0
 16 17  2  0  0  0  0
 16 18  1  0  0  0  0
 18 19  1  0  0  0  0
 18 20  1  0  0  0  0
 20 21  1  0  0  0  0
 20 22  1  0  0  0  0
 20 23  1  0  0  0  0
M  END
$$$$

  -OEChem-01062216093D

 23 22  0     1  0  0  0  0  0999 V2000
   -3.0198   -3.5954    0.8816 H   0  0  0  0  0  0  0  0  0  0  0  0
   -2.8852   -2.5447    0.6090 C   0  0  0  0  0  0  0  0  0  0  0  0
   -3.5823   -1.9381    1.1918 H   0  0  0  0  0  0  0  0  0  0  0  0
   -3.1086   -2.4282   -0.4540 H   0  0  0  0  0  0  0  0  0  0  0  0
   -1.4589   -2.1099    0.8925 C   0  0  0  0  0  0  0  0  0  0  0  0
   -0.7262   -2.8750    1.4890 O   0  0  0  0  0  0  0  0  0  0  0  0
   -1.0792   -0.8279    0.5375 N   0  0  0  0  0  0  0  0  0  0  0  0
   -1.8153   -0.2715    0.1178 H   0  0  0  0  0  0  0  0  0  0  0  0
    0.2723   -0.2152    0.5793 C   0  0  1  0  0  0  0  0  0  0  0  0
    0.6433   -0.2219   -0.4498 H   0  0  0  0  0  0  0  0  0  0  0  0
    0.1205    1.2623    0.9890 C   0  0  0  0  0  0  0  0  0  0  0  0
    1.0853    1.7717    0.8910 H   0  0  0  0  0  0  0  0  0  0  0  0
   -0.5775    1.7531    0.3031 H   0  0  0  0  0  0  0  0  0  0  0  0
   -0.3633    1.4054    2.3322 O   0  0  0  0  0  0  0  0  0  0  0  0
   -0.5345    2.3408    2.5439 H   0  0  0  0  0  0  0  0  0  0  0  0
    1.3946   -0.9203    1.3873 C   0  0  0  0  0  0  0  0  0  0  0  0
    2.0115   -1.8349    0.8530 O   0  0  0  0  0  0  0  0  0  0  0  0
    2.0167   -0.2826    2.4471 N   0  0  0  0  0  0  0  0  0  0  0  0
    1.4404    0.4156    2.9145 H   0  0  0  0  0  0  0  0  0  0  0  0
    3.1304   -0.8723    3.1798 C   0  0  0  0  0  0  0  0  0  0  0  0
    4.0038   -0.9800    2.5282 H   0  0  0  0  0  0  0  0  0  0  0  0
    3.4073   -0.2343    4.0243 H   0  0  0  0  0  0  0  0  0  0  0  0
    2.8547   -1.8595    3.5657 H   0  0  0  0  0  0  0  0  0  0  0  0
  1  2  1  0  0  0  0
  2  3  1  0  0  0  0
  2  4  1  0  0  0  0
  2  5  1  0  0  0  0
  5  6  2  0  0  0  0
  5  7  1  0  0  0  0
  7  8  1  0  0  0  0
  7  9  1  0  0  0  0
  9 10  1  0  0  0  0
  9 11  1  0  0  0  0
  9 16  1  0  0  0  0
 11 12  1  0  0  0  0
 11 13  1  0  0  0  0
 11 14  1  0  0  0  0
 14 15  1  0  0  0  0
 16 17  2  0  0  0  0
 16 18  1  0  0  0  0
 18 19  1  0  0  0  0
 18 20  1  0  0  0  0
 20 21  1  0  0  0  0
 20 22  1  0  0  0  0
 20 23  1  0  0  0  0
M  END
$$$$

  -OEChem-01062216093D

 23 22  0     1  0  0  0  0  0999 V2000
   -2.9985   -3.5900    0.9071 H   0  0  0  0  0  0  0  0  0  0  0  0
   -2.8741   -2.5367    0.6398 C   0  0  0  0  0  0  0  0  0  0  0  0
   -3.5190   -1.9326    1.2823 H   0  0  0  0  0  0  0  0  0  0  0  0
   -3.1756   -2.4017   -0.4015 H   0  0  0  0  0  0  0  0  0  0  0  0
   -1.4261   -2.1202    0.8197 C   0  0  0  0  0  0  0  0  0  0  0  0
   -0.6432   -2.9215    1.2924 O   0  0  0  0  0  0  0  0  0  0  0  0
   -1.0631   -0.8291    0.4823 N   0  0  0  0  0  0  0  0  0  0  0  0
   -1.8263   -0.2367    0.1749 H   0  0  0  0  0  0  0  0  0  0  0  0
    0.2811   -0.2058    0.5498 C   0  0  1  0  0  0  0  0  0  0  0  0
    0.6641   -0.1968   -0.4752 H   0  0  0  0  0  0  0  0  0  0  0  0
    0.1080    1.2647    0.9734 C   0  0  0  0  0  0  0  0  0  0  0  0
    1.0736    1.7771    0.9015 H   0  0  0  0  0  0  0  0  0  0  0  0
   -0.5784    1.7606    0.2795 H   0  0  0  0  0  0  0  0  0  0  0  0
   -0.3985    1.3937    2.3107 O   0  0  0  0  0  0  0  0  0  0  0  0
   -0.5285    2.3313    2.5422 H   0  0  0  0  0  0  0  0  0  0  0  0
    1.3967   -0.9096    1.3657 C   0  0  0  0  0  0  0  0  0  0  0  0
    2.1535   -1.6814    0.7880 O   0  0  0  0  0  0  0  0  0  0  0  0
    1.7869   -0.4322    2.6037 N   0  0  0  0  0  0  0  0  0  0  0  0
    1.1080    0.1734    3.0634 H   0  0  0  0  0  0  0  0  0  0  0  0
    2.8397   -1.0491    3.3996 C   0  0  0  0  0  0  0  0  0  0  0  0
    3.7966   -1.0082    2.8689 H   0  0  0  0  0  0  0  0  0  0  0  0
    2.9512   -0.5216    4.3516 H   0  0  0  0  0  0  0  0  0  0  0  0
    2.5963   -2.0964    3.6079 H   0  0  0  0  0  0  0  0  0  0  0  0
  1  2  1  0  0  0  0
  2  3  1  0  0  0  0
  2  4  1  0  0  0  0
  2  5  1  0  0  0  0
  5  6  2  0  0  0  0
  5  7  1  0  0  0  0
  7  8  1  0  0  0  0
  7  9  1  0  0  0  0
  9 10  1  0  0  0  0
  9 11  1  0  0  0  0
  9 16  1  0  0  0  0
 11 12  1  0  0  0  0
 11 13  1  0  0  0  0
 11 14  1  0  0  0  0
 14 15  1  0  0  0  0
 16 17  2  0  0  0  0
 16 18  1  0  0  0  0
 18 19  1  0  0  0  0
 18 20  1  0  0  0  0
 20 21  1  0  0  0  0
 20 22  1  0  0  0  0
 20 23  1  0  0  0  0
M  END
$$$$

  -OEChem-01062216093D

 23 22  0     1  0  0  0  0  0999 V2000
   -2.9860   -3.5833    0.9233 H   0  0  0  0  0  0  0  0  0  0  0  0
   -2.8670   -2.5297    0.6547 C   0  0  0  0  0  0  0  0  0  0  0  0
   -3.4758   -1.9237    1.3297 H   0  0  0  0  0  0  0  0  0  0  0  0
   -3.2173   -2.3881   -0.3704 H   0  0  0  0  0  0  0  0  0  0  0  0
   -1.4091   -2.1238    0.7665 C   0  0  0  0  0  0  0  0  0  0  0  0
   -0.6004   -2.9437    1.1582 O   0  0  0  0  0  0  0  0  0  0  0  0
   -1.0548   -0.8283    0.4382 N   0  0  0  0  0  0  0  0  0  0  0  0
   -1.8303   -0.2164    0.2083 H   0  0  0  0  0  0  0  0  0  0  0  0
    0.2859   -0.2022    0.5289 C   0  0  1  0  0  0  0  0  0  0  0  0
    0.6822   -0.1838   -0.4911 H   0  0  0  0  0  0  0  0  0  0  0  0
    0.1027    1.2624    0.9641 C   0  0  0  0  0  0  0  0  0  0  0  0
    1.0698    1.7741    0.9139 H   0  0  0  0  0  0  0  0  0  0  0  0
   -0.5726    1.7665    0.2649 H   0  0  0  0  0  0  0  0  0  0  0  0
   -0.4225    1.3767    2.2959 O   0  0  0  0  0  0  0  0  0  0  0  0
   -0.5059    2.3127    2.5536 H   0  0  0  0  0  0  0  0  0  0  0  0
    1.3903   -0.9048    1.3581 C   0  0  0  0  0  0  0  0  0  0  0  0
    2.2794   -1.5123    0.7727 O   0  0  0  0  0  0  0  0  0  0  0  0
    1.5545   -0.6363    2.7040 N   0  0  0  0  0  0  0  0  0  0  0  0
    0.7917   -0.1248    3.1454 H   0  0  0  0  0  0  0  0  0  0  0  0
    2.5649   -1.2778    3.5337 C   0  0  0  0  0  0  0  0  0  0  0  0
    3.5689   -1.0512    3.1601 H   0  0  0  0  0  0  0  0  0  0  0  0
    2.4913   -0.9185    4.5644 H   0  0  0  0  0  0  0  0  0  0  0  0
    2.4250   -2.3639    3.5328 H   0  0  0  0  0  0  0  0  0  0  0  0
  1  2  1  0  0  0  0
  2  3  1  0  0  0  0
  2  4  1  0  0  0  0
  2  5  1  0  0  0  0
  5  6  2  0  0  0  0
  5  7  1  0  0  0  0
  7  8  1  0  0  0  0
  7  9  1  0  0  0  0
  9 10  1  0  0  0  0
  9 11  1  0  0  0  0
  9 16  1  0  0  0  0
 11 12  1  0  0  0  0
 11 13  1  0  0  0  0
 11 14  1  0  0  0  0
 14 15  1  0  0  0  0
 16 17  2  0  0  0  0
 16 18  1  0  0  0  0
 18 19  1  0  0  0  0
 18 20  1  0  0  0  0
 20 21  1  0  0  0  0
 20 22  1  0  0  0  0
 20 23  1  0  0  0  0
M  END
$$$$

  -OEChem-01062216093D

 23 22  0     1  0  0  0  0  0999 V2000
   -2.9822   -3.5728    0.9306 H   0  0  0  0  0  0  0  0  0  0  0  0
   -2.8654   -2.5189    0.6620 C   0  0  0  0  0  0  0  0  0  0  0  0
   -3.4422   -1.9117    1.3637 H   0  0  0  0  0  0  0  0  0  0  0  0
   -3.2552   -2.3693   -0.3476 H   0  0  0  0  0  0  0  0  0  0  0  0
   -1.4010   -2.1248    0.7160 C   0  0  0  0  0  0  0  0  0  0  0  0
   -0.5774   -2.9610    1.0368 O   0  0  0  0  0  0  0  0  0  0  0  0
   -1.0488   -0.8273    0.3944 N   0  0  0  0  0  0  0  0  0  0  0  0
   -1.8292   -0.2000    0.2311 H   0  0  0  0  0  0  0  0  0  0  0  0
    0.2907   -0.2032    0.5088 C   0  0  1  0  0  0  0  0  0  0  0  0
    0.7007   -0.1750   -0.5057 H   0  0  0  0  0  0  0  0  0  0  0  0
    0.1033    1.2532    0.9614 C   0  0  0  0  0  0  0  0  0  0  0  0
    1.0726    1.7628    0.9340 H   0  0  0  0  0  0  0  0  0  0  0  0
   -0.5615    1.7710    0.2624 H   0  0  0  0  0  0  0  0  0  0  0  0
   -0.4374    1.3405    2.2885 O   0  0  0  0  0  0  0  0  0  0  0  0
   -0.4826    2.2689    2.5808 H   0  0  0  0  0  0  0  0  0  0  0  0
    1.3826   -0.9037    1.3533 C   0  0  0  0  0  0  0  0  0  0  0  0
    2.3955   -1.3151    0.7995 O   0  0  0  0  0  0  0  0  0  0  0  0
    1.3409   -0.8796    2.7344 N   0  0  0  0  0  0  0  0  0  0  0  0
    0.4953   -0.4917    3.1471 H   0  0  0  0  0  0  0  0  0  0  0  0
    2.3216   -1.5397    3.5841 C   0  0  0  0  0  0  0  0  0  0  0  0
    3.3281   -1.1635    3.3737 H   0  0  0  0  0  0  0  0  0  0  0  0
    2.0963   -1.3507    4.6379 H   0  0  0  0  0  0  0  0  0  0  0  0
    2.3058   -2.6213    3.4133 H   0  0  0  0  0  0  0  0  0  0  0  0
  1  2  1  0  0  0  0
  2  3  1  0  0  0  0
  2  4  1  0  0  0  0
  2  5  1  0  0  0  0
  5  6  2  0  0  0  0
  5  7  1  0  0  0  0
  7  8  1  0  0  0  0
  7  9  1  0  0  0  0
  9 10  1  0  0  0  0
  9 11  1  0  0  0  0
  9 16  1  0  0  0  0
 11 12  1  0  0  0  0
 11 13  1  0  0  0  0
 11 14  1  0  0  0  0
 14 15  1  0  0  0  0
 16 17  2  0  0  0  0
 16 18  1  0  0  0  0
 18 19  1  0  0  0  0
 18 20  1  0  0  0  0
 20 21  1  0  0  0  0
 20 22  1  0  0  0  0
 20 23  1  0  0  0  0
M  END
$$$$

  -OEChem-01062216093D

 23 22  0     1  0  0  0  0  0999 V2000
   -3.0018   -3.5539    0.9283 H   0  0  0  0  0  0  0  0  0  0  0  0
   -2.8801   -2.5006    0.6596 C   0  0  0  0  0  0  0  0  0  0  0  0
   -3.4364   -1.8893    1.3743 H   0  0  0  0  0  0  0  0  0  0  0  0
   -3.2894   -2.3446   -0.3414 H   0  0  0  0  0  0  0  0  0  0  0  0
   -1.4109   -2.1219    0.6836 C   0  0  0  0  0  0  0  0  0  0  0  0
   -0.5862   -2.9708    0.9665 O   0  0  0  0  0  0  0  0  0  0  0  0
   -1.0488   -0.8279    0.3613 N   0  0  0  0  0  0  0  0  0  0  0  0
   -1.8260   -0.1892    0.2291 H   0  0  0  0  0  0  0  0  0  0  0  0
    0.2920   -0.2101    0.4965 C   0  0  1  0  0  0  0  0  0  0  0  0
    0.7165   -0.1816   -0.5120 H   0  0  0  0  0  0  0  0  0  0  0  0
    0.1036    1.2421    0.9554 C   0  0  0  0  0  0  0  0  0  0  0  0
    1.0749    1.7486    0.9475 H   0  0  0  0  0  0  0  0  0  0  0  0
   -0.5501    1.7695    0.2532 H   0  0  0  0  0  0  0  0  0  0  0  0
   -0.4539    1.3101    2.2754 O   0  0  0  0  0  0  0  0  0  0  0  0
   -0.4521    2.2275    2.6028 H   0  0  0  0  0  0  0  0  0  0  0  0
    1.3765   -0.8972    1.3606 C   0  0  0  0  0  0  0  0  0  0  0  0
    2.4891   -1.0830    0.8806 O   0  0  0  0  0  0  0  0  0  0  0  0
    1.1804   -1.1328    2.7088 N   0  0  0  0  0  0  0  0  0  0  0  0
    0.2408   -0.9665    3.0580 H   0  0  0  0  0  0  0  0  0  0  0  0
    2.1453   -1.8225    3.5531 C   0  0  0  0  0  0  0  0  0  0  0  0
    3.1074   -1.2997    3.5439 H   0  0  0  0  0  0  0  0  0  0  0  0
    1.7840   -1.8606    4.5851 H   0  0  0  0  0  0  0  0  0  0  0  0
    2.2964   -2.8477    3.1991 H   0  0  0  0  0  0  0  0  0  0  0  0
  1  2  1  0  0  0  0
  2  3  1  0  0  0  0
  2  4  1  0  0  0  0
  2  5  1  0  0  0  0
  5  6  2  0  0  0  0
  5  7  1  0  0  0  0
  7  8  1  0  0  0  0
  7  9  1  0  0  0  0
  9 10  1  0  0  0  0
  9 11  1  0  0  0  0
  9 16  1  0  0  0  0
 11 12  1  0  0  0  0
 11 13  1  0  0  0  0
 11 14  1  0  0  0  0
 14 15  1  0  0  0  0
 16 17  2  0  0  0  0
 16 18  1  0  0  0  0
 18 19  1  0  0  0  0
 18 20  1  0  0  0  0
 20 21  1  0  0  0  0
 20 22  1  0  0  0  0
 20 23  1  0  0  0  0
M  END
$$$$

  -OEChem-01062216093D

 23 22  0     1  0  0  0  0  0999 V2000
   -3.0869   -3.5114    0.8864 H   0  0  0  0  0  0  0  0  0  0  0  0
   -2.9359   -2.4603    0.6239 C   0  0  0  0  0  0  0  0  0  0  0  0
   -3.4834   -1.8382    1.3359 H   0  0  0  0  0  0  0  0  0  0  0  0
   -3.3308   -2.2895   -0.3805 H   0  0  0  0  0  0  0  0  0  0  0  0
   -1.4585   -2.1179    0.6647 C   0  0  0  0  0  0  0  0  0  0  0  0
   -0.6579   -2.9836    0.9655 O   0  0  0  0  0  0  0  0  0  0  0  0
   -1.0603   -0.8345    0.3463 N   0  0  0  0  0  0  0  0  0  0  0  0
   -1.8238   -0.1793    0.2115 H   0  0  0  0  0  0  0  0  0  0  0  0
    0.2864   -0.2319    0.5052 C   0  0  1  0  0  0  0  0  0  0  0  0
    0.7260   -0.2124   -0.4969 H   0  0  0  0  0  0  0  0  0  0  0  0
    0.1039    1.2227    0.9556 C   0  0  0  0  0  0  0  0  0  0  0  0
    1.0792    1.7218    0.9664 H   0  0  0  0  0  0  0  0  0  0  0  0
   -0.5324    1.7558    0.2418 H   0  0  0  0  0  0  0  0  0  0  0  0
   -0.4782    1.2907    2.2636 O   0  0  0  0  0  0  0  0  0  0  0  0
   -0.4347    2.1979    2.6144 H   0  0  0  0  0  0  0  0  0  0  0  0
    1.3678   -0.9003    1.3890 C   0  0  0  0  0  0  0  0  0  0  0  0
    2.5381   -0.8227    1.0312 O   0  0  0  0  0  0  0  0  0  0  0  0
    1.0869   -1.4012    2.6470 N   0  0  0  0  0  0  0  0  0  0  0  0
    0.1053   -1.6033    2.8135 H   0  0  0  0  0  0  0  0  0  0  0  0
    2.0792   -2.0936    3.4573 C   0  0  0  0  0  0  0  0  0  0  0  0
    2.9439   -1.4478    3.6419 H   0  0  0  0  0  0  0  0  0  0  0  0
    1.6480   -2.3738    4.4229 H   0  0  0  0  0  0  0  0  0  0  0  0
    2.4185   -3.0025    2.9497 H   0  0  0  0  0  0  0  0  0  0  0  0
  1  2  1  0  0  0  0
  2  3  1  0  0  0  0
  2  4  1  0  0  0  0
  2  5  1  0  0  0  0
  5  6  2  0  0  0  0
  5  7  1  0  0  0  0
  7  8  1  0  0  0  0
  7  9  1  0  0  0  0
  9 10  1  0  0  0  0
  9 11  1  0  0  0  0
  9 16  1  0  0  0  0
 11 12  1  0  0  0  0
 11 13  1  0  0  0  0
 11 14  1  0  0  0  0
 14 15  1  0  0  0  0
 16 17  2  0  0  0  0
 16 18  1  0  0  0  0
 18 19  1  0  0  0  0
 18 20  1  0  0  0  0
 20 21  1  0  0  0  0
 20 22  1  0  0  0  0
 20 23  1  0  0  0  0
M  END
$$$$

  -OEChem-01062216093D

 23 22  0     1  0  0  0  0  0999 V2000
   -3.2066   -3.4393    0.8431 H   0  0  0  0  0  0  0  0  0  0  0  0
   -3.0129   -2.3936    0.5881 C   0  0  0  0  0  0  0  0  0  0  0  0
   -3.5280   -1.7553    1.3101 H   0  0  0  0  0  0  0  0  0  0  0  0
   -3.4093   -2.1972   -0.4109 H   0  0  0  0  0  0  0  0  0  0  0  0
   -1.5220   -2.1139    0.6195 C   0  0  0  0  0  0  0  0  0  0  0  0
   -0.7550   -3.0196    0.8902 O   0  0  0  0  0  0  0  0  0  0  0  0
   -1.0749   -0.8428    0.3207 N   0  0  0  0  0  0  0  0  0  0  0  0
   -1.8196   -0.1615    0.2111 H   0  0  0  0  0  0  0  0  0  0  0  0
    0.2820   -0.2673    0.5057 C   0  0  1  0  0  0  0  0  0  0  0  0
    0.7342   -0.2445   -0.4905 H   0  0  0  0  0  0  0  0  0  0  0  0
    0.0999    1.1846    0.9680 C   0  0  0  0  0  0  0  0  0  0  0  0
    1.0755    1.6818    1.0017 H   0  0  0  0  0  0  0  0  0  0  0  0
   -0.5220    1.7290    0.2501 H   0  0  0  0  0  0  0  0  0  0  0  0
   -0.5060    1.2358    2.2654 O   0  0  0  0  0  0  0  0  0  0  0  0
   -0.4416    2.1313    2.6419 H   0  0  0  0  0  0  0  0  0  0  0  0
    1.3631   -0.9312    1.3977 C   0  0  0  0  0  0  0  0  0  0  0  0
    2.5350   -0.6368    1.1861 O   0  0  0  0  0  0  0  0  0  0  0  0
    1.0666   -1.6934    2.5122 N   0  0  0  0  0  0  0  0  0  0  0  0
    0.1518   -2.1408    2.4689 H   0  0  0  0  0  0  0  0  0  0  0  0
    2.0953   -2.3423    3.3137 C   0  0  0  0  0  0  0  0  0  0  0  0
    2.7987   -1.6023    3.7096 H   0  0  0  0  0  0  0  0  0  0  0  0
    1.6377   -2.8667    4.1578 H   0  0  0  0  0  0  0  0  0  0  0  0
    2.6489   -3.0690    2.7101 H   0  0  0  0  0  0  0  0  0  0  0  0
  1  2  1  0  0  0  0
  2  3  1  0  0  0  0
  2  4  1  0  0  0  0
  2  5  1  0  0  0  0
  5  6  2  0  0  0  0
  5  7  1  0  0  0  0
  7  8  1  0  0  0  0
  7  9  1  0  0  0  0
  9 10  1  0  0  0  0
  9 11  1  0  0  0  0
  9 16  1  0  0  0  0
 11 12  1  0  0  0  0
 11 13  1  0  0  0  0
 11 14  1  0  0  0  0
 14 15  1  0  0  0  0
 16 17  2  0  0  0  0
 16 18  1  0  0  0  0
 18 19  1  0  0  0  0
 18 20  1  0  0  0  0
 20 21  1  0  0  0  0
 20 22  1  0  0  0  0
 20 23  1  0  0  0  0
M  END
$$$$

  -OEChem-01062216093D

 23 22  0     1  0  0  0  0  0999 V2000
   -3.2665   -3.3791    0.8517 H   0  0  0  0  0  0  0  0  0  0  0  0
   -3.0494   -2.3361    0.6037 C   0  0  0  0  0  0  0  0  0  0  0  0
   -3.4990   -1.6941    1.3651 H   0  0  0  0  0  0  0  0  0  0  0  0
   -3.4937   -2.1061   -0.3677 H   0  0  0  0  0  0  0  0  0  0  0  0
   -1.5500   -2.1102    0.5542 C   0  0  0  0  0  0  0  0  0  0  0  0
   -0.8027   -3.0604    0.7018 O   0  0  0  0  0  0  0  0  0  0  0  0
   -1.0747   -0.8444    0.2786 N   0  0  0  0  0  0  0  0  0  0  0  0
   -1.8094   -0.1438    0.2522 H   0  0  0  0  0  0  0  0  0  0  0  0
    0.2856   -0.2876    0.4987 C   0  0  1  0  0  0  0  0  0  0  0  0
    0.7576   -0.2601   -0.4877 H   0  0  0  0  0  0  0  0  0  0  0  0
    0.0866    1.1629    0.9621 C   0  0  0  0  0  0  0  0  0  0  0  0
    1.0568    1.6675    1.0259 H   0  0  0  0  0  0  0  0  0  0  0  0
   -0.5172    1.7091    0.2300 H   0  0  0  0  0  0  0  0  0  0  0  0
   -0.5569    1.2010    2.2420 O   0  0  0  0  0  0  0  0  0  0  0  0
   -0.4942    2.0905    2.6331 H   0  0  0  0  0  0  0  0  0  0  0  0
    1.3585   -0.9518    1.4059 C   0  0  0  0  0  0  0  0  0  0  0  0
    2.5014   -0.5095    1.3481 O   0  0  0  0  0  0  0  0  0  0  0  0
    1.0977   -1.9457    2.3303 N   0  0  0  0  0  0  0  0  0  0  0  0
    0.2435   -2.4735    2.1469 H   0  0  0  0  0  0  0  0  0  0  0  0
    2.1453   -2.6042    3.0999 C   0  0  0  0  0  0  0  0  0  0  0  0
    2.7018   -1.8736    3.6962 H   0  0  0  0  0  0  0  0  0  0  0  0
    1.7057   -3.3391    3.7807 H   0  0  0  0  0  0  0  0  0  0  0  0
    2.8428   -3.1214    2.4329 H   0  0  0  0  0  0  0  0  0  0  0  0
  1  2  1  0  0  0  0
  2  3  1  0  0  0  0
  2  4  1  0  0  0  0
  2  5  1  0  0  0  0
  5  6  2  0  0  0  0
  5  7  1  0  0  0  0
  7  8  1  0  0  0  0
  7  9  1  0  0  0  0
  9 10  1  0  0  0  0
  9 11  1  0  0  0  0
  9 16  1  0  0  0  0
 11 12  1  0  0  0  0
 11 13  1  0  0  0  0
 11 14  1  0  0  0  0
 14 15  1  0  0  0  0
 16 17  2  0  0  0  0
 16 18  1  0  0  0  0
 18 19  1  0  0  0  0
 18 20  1  0  0  0  0
 20 21  1  0  0  0  0
 20 22  1  0  0  0  0
 20 23  1  0  0  0  0
M  END
$$$$

  -OEChem-01062216093D

 23 22  0     1  0  0  0  0  0999 V2000
   -2.7830   -3.6074    1.2452 H   0  0  0  0  0  0  0  0  0  0  0  0
   -2.6581   -2.5837    0.8812 C   0  0  0  0  0  0  0  0  0  0  0  0
   -3.0372   -1.8933    1.6385 H   0  0  0  0  0  0  0  0  0  0  0  0
   -3.2379   -2.4624   -0.0367 H   0  0  0  0  0  0  0  0  0  0  0  0
   -1.1925   -2.3013    0.6117 C   0  0  0  0  0  0  0  0  0  0  0  0
   -0.3934   -3.2186    0.6159 O   0  0  0  0  0  0  0  0  0  0  0  0
   -0.8172   -1.0744    0.1138 N   0  0  0  0  0  0  0  0  0  0  0  0
   -1.6279   -0.4707   -0.0029 H   0  0  0  0  0  0  0  0  0  0  0  0
    0.3835   -0.2910    0.4900 C   0  0  1  0  0  0  0  0  0  0  0  0
    1.0935   -0.4199   -0.3317 H   0  0  0  0  0  0  0  0  0  0  0  0
   -0.0882    1.1736    0.4734 C   0  0  0  0  0  0  0  0  0  0  0  0
    0.7572    1.8591    0.5953 H   0  0  0  0  0  0  0  0  0  0  0  0
   -0.5419    1.3967   -0.4982 H   0  0  0  0  0  0  0  0  0  0  0  0
   -1.0554    1.3967    1.5057 O   0  0  0  0  0  0  0  0  0  0  0  0
   -0.6076    1.4214    2.3728 H   0  0  0  0  0  0  0  0  0  0  0  0
    1.2355   -0.5823    1.7676 C   0  0  0  0  0  0  0  0  0  0  0  0
    1.8768    0.3325    2.2646 O   0  0  0  0  0  0  0  0  0  0  0  0
    1.0392   -1.5585    2.7152 N   0  0  0  0  0  0  0  0  0  0  0  0
    1.2376   -1.1645    3.6309 H   0  0  0  0  0  0  0  0  0  0  0  0
    1.7264   -2.8310    2.5198 C   0  0  0  0  0  0  0  0  0  0  0  0
    2.6343   -2.8633    3.1304 H   0  0  0  0  0  0  0  0  0  0  0  0
    1.0775   -3.6606    2.8178 H   0  0  0  0  0  0  0  0  0  0  0  0
    2.0179   -2.9775    1.4738 H   0  0  0  0  0  0  0  0  0  0  0  0
  1  2  1  0  0  0  0
  2  3  1  0  0  0  0
  2  4  1  0  0  0  0
  2  5  1  0  0  0  0
  5  6  2  0  0  0  0
  5  7  1  0  0  0  0
  7  8  1  0  0  0  0
  7  9  1  0  0  0  0
  9 10  1  0  0  0  0
  9 11  1  0  0  0  0
  9 16  1  0  0  0  0
 11 12  1  0  0  0  0
 11 13  1  0  0  0  0
 11 14  1  0  0  0  0
 14 15  1  0  0  0  0
 16 17  2  0  0  0  0
 16 18  1  0  0  0  0
 18 19  1  0  0  0  0
 18 20  1  0  0  0  0
 20 21  1  0  0  0  0
 20 22  1  0  0  0  0
 20 23  1  0  0  0  0
M  END
$$$$

  -OEChem-01062216093D

 23 22  0     1  0  0  0  0  0999 V2000
   -2.4953   -3.8520    1.3282 H   0  0  0  0  0  0  0  0  0  0  0  0
   -2.5152   -2.7668    1.1941 C   0  0  0  0  0  0  0  0  0  0  0  0
   -2.6122   -2.2936    2.1743 H   0  0  0  0  0  0  0  0  0  0  0  0
   -3.3803   -2.5030    0.5810 H   0  0  0  0  0  0  0  0  0  0  0  0
   -1.2394   -2.3012    0.5185 C   0  0  0  0  0  0  0  0  0  0  0  0
   -0.4802   -3.1232    0.0398 O   0  0  0  0  0  0  0  0  0  0  0  0
   -1.0507   -0.9581    0.2827 N   0  0  0  0  0  0  0  0  0  0  0  0
   -1.8127   -0.4050    0.6629 H   0  0  0  0  0  0  0  0  0  0  0  0
    0.2375   -0.2216    0.2890 C   0  0  1  0  0  0  0  0  0  0  0  0
    0.4767   -0.0423   -0.7634 H   0  0  0  0  0  0  0  0  0  0  0  0
   -0.0829    1.1306    0.9436 C   0  0  0  0  0  0  0  0  0  0  0  0
    0.7847    1.7960    0.8796 H   0  0  0  0  0  0  0  0  0  0  0  0
   -0.9046    1.6178    0.4085 H   0  0  0  0  0  0  0  0  0  0  0  0
   -0.4473    0.9431    2.3180 O   0  0  0  0  0  0  0  0  0  0  0  0
   -0.4855    1.7995    2.7811 H   0  0  0  0  0  0  0  0  0  0  0  0
    1.5811   -0.7397    0.8892 C   0  0  0  0  0  0  0  0  0  0  0  0
    2.5770   -0.0507    0.7146 O   0  0  0  0  0  0  0  0  0  0  0  0
    1.9504   -2.0075    1.2720 N   0  0  0  0  0  0  0  0  0  0  0  0
    2.9618   -2.1011    1.2520 H   0  0  0  0  0  0  0  0  0  0  0  0
    1.3009   -2.6491    2.4081 C   0  0  0  0  0  0  0  0  0  0  0  0
    1.9882   -2.6818    3.2591 H   0  0  0  0  0  0  0  0  0  0  0  0
    0.4055   -2.1024    2.7206 H   0  0  0  0  0  0  0  0  0  0  0  0
    1.0163   -3.6748    2.1533 H   0  0  0  0  0  0  0  0  0  0  0  0
  1  2  1  0  0  0  0
  2  3  1  0  0  0  0
  2  4  1  0  0  0  0
  2  5  1  0  0  0  0
  5  6  2  0  0  0  0
  5  7  1  0  0  0  0
  7  8  1  0  0  0  0
  7  9  1  0  0  0  0
  9 10  1  0  0  0  0
  9 11  1  0  0  0  0
  9 16  1  0  0  0  0
 11 12  1  0  0  0  0
 11 13  1  0  0  0  0
 11 14  1  0  0  0  0
 14 15  1  0  0  0  0
 16 17  2  0  0  0  0
 16 18  1  0  0  0  0
 18 19  1  0  0  0  0
 18 20  1  0  0  0  0
 20 21  1  0  0  0  0
 20 22  1  0  0  0  0
 20 23  1  0  0  0  0
M  END
$$$$

  -OEChem-01062216093D

 23 22  0     1  0  0  0  0  0999 V2000
   -2.6678   -3.6754    1.1504 H   0  0  0  0  0  0  0  0  0  0  0  0
   -2.5953   -2.5855    1.0963 C   0  0  0  0  0  0  0  0  0  0  0  0
   -2.6421   -2.1800    2.1100 H   0  0  0  0  0  0  0  0  0  0  0  0
   -3.4402   -2.2043    0.5179 H   0  0  0  0  0  0  0  0  0  0  0  0
   -1.2903   -2.1812    0.4374 C   0  0  0  0  0  0  0  0  0  0  0  0
   -0.5950   -3.0319   -0.0854 O   0  0  0  0  0  0  0  0  0  0  0  0
   -1.0095   -0.8457    0.2602 N   0  0  0  0  0  0  0  0  0  0  0  0
   -1.7416   -0.2634    0.6564 H   0  0  0  0  0  0  0  0  0  0  0  0
    0.3190   -0.1894    0.3346 C   0  0  1  0  0  0  0  0  0  0  0  0
    0.6064    0.0069   -0.7023 H   0  0  0  0  0  0  0  0  0  0  0  0
    0.0409    1.1607    1.0154 C   0  0  0  0  0  0  0  0  0  0  0  0
    0.9406    1.7850    1.0056 H   0  0  0  0  0  0  0  0  0  0  0  0
   -0.7329    1.7038    0.4624 H   0  0  0  0  0  0  0  0  0  0  0  0
   -0.3903    0.9534    2.3675 O   0  0  0  0  0  0  0  0  0  0  0  0
   -0.3715    1.7918    2.8634 H   0  0  0  0  0  0  0  0  0  0  0  0
    1.6087   -0.8139    0.9563 C   0  0  0  0  0  0  0  0  0  0  0  0
    2.6075   -0.1093    1.0156 O   0  0  0  0  0  0  0  0  0  0  0  0
    1.9873   -2.1319    1.0414 N   0  0  0  0  0  0  0  0  0  0  0  0
    2.9997   -2.1968    0.9854 H   0  0  0  0  0  0  0  0  0  0  0  0
    1.4072   -2.9736    2.0805 C   0  0  0  0  0  0  0  0  0  0  0  0
    0.4966   -2.5315    2.4968 H   0  0  0  0  0  0  0  0  0  0  0  0
    1.1633   -3.9605    1.6745 H   0  0  0  0  0  0  0  0  0  0  0  0
    2.1232   -3.1021    2.8981 H   0  0  0  0  0  0  0  0  0  0  0  0
  1  2  1  0  0  0  0
  2  3  1  0  0  0  0
  2  4  1  0  0  0  0
  2  5  1  0  0  0  0
  5  6  2  0  0  0  0
  5  7  1  0  0  0  0
  7  8  1  0  0  0  0
  7  9  1  0  0  0  0
  9 10  1  0  0  0  0
  9 11  1  0  0  0  0
  9 16  1  0  0  0  0
 11 12  1  0  0  0  0
 11 13  1  0  0  0  0
 11 14  1  0  0  0  0
 14 15  1  0  0  0  0
 16 17  2  0  0  0  0
 16 18  1  0  0  0  0
 18 19  1  0  0  0  0
 18 20  1  0  0  0  0
 20 21  1  0  0  0  0
 20 22  1  0  0  0  0
 20 23  1  0  0  0  0
M  END
$$$$

  -OEChem-01062216093D

 23 22  0     1  0  0  0  0  0999 V2000
   -3.1668   -3.3735    1.0154 H   0  0  0  0  0  0  0  0  0  0  0  0
   -2.9856   -2.3155    0.8057 C   0  0  0  0  0  0  0  0  0  0  0  0
   -3.2740   -1.7306    1.6826 H   0  0  0  0  0  0  0  0  0  0  0  0
   -3.6025   -2.0143   -0.0444 H   0  0  0  0  0  0  0  0  0  0  0  0
   -1.5194   -2.0867    0.4899 C   0  0  0  0  0  0  0  0  0  0  0  0
   -0.7854   -3.0488    0.3539 O   0  0  0  0  0  0  0  0  0  0  0  0
   -1.0879   -0.8021    0.2285 N   0  0  0  0  0  0  0  0  0  0  0  0
   -1.8277   -0.1196    0.3776 H   0  0  0  0  0  0  0  0  0  0  0  0
    0.2680   -0.2131    0.3780 C   0  0  1  0  0  0  0  0  0  0  0  0
    0.6851   -0.1506   -0.6312 H   0  0  0  0  0  0  0  0  0  0  0  0
    0.0339    1.2276    0.8653 C   0  0  0  0  0  0  0  0  0  0  0  0
    0.9736    1.7908    0.8718 H   0  0  0  0  0  0  0  0  0  0  0  0
   -0.6458    1.7409    0.1772 H   0  0  0  0  0  0  0  0  0  0  0  0
   -0.5408    1.2168    2.1753 O   0  0  0  0  0  0  0  0  0  0  0  0
    0.1316    0.8997    2.8121 H   0  0  0  0  0  0  0  0  0  0  0  0
    1.3922   -0.9110    1.2058 C   0  0  0  0  0  0  0  0  0  0  0  0
    2.0487   -0.2519    2.0067 O   0  0  0  0  0  0  0  0  0  0  0  0
    1.6855   -2.2571    1.1206 N   0  0  0  0  0  0  0  0  0  0  0  0
    0.9989   -2.8269    0.6192 H   0  0  0  0  0  0  0  0  0  0  0  0
    2.6458   -2.9369    1.9811 C   0  0  0  0  0  0  0  0  0  0  0  0
    2.3385   -2.8673    3.0296 H   0  0  0  0  0  0  0  0  0  0  0  0
    2.7107   -3.9945    1.7080 H   0  0  0  0  0  0  0  0  0  0  0  0
    3.6408   -2.4925    1.8734 H   0  0  0  0  0  0  0  0  0  0  0  0
  1  2  1  0  0  0  0
  2  3  1  0  0  0  0
  2  4  1  0  0  0  0
  2  5  1  0  0  0  0
  5  6  2  0  0  0  0
  5  7  1  0  0  0  0
  7  8  1  0  0  0  0
  7  9  1  0  0  0  0
  9 10  1  0  0  0  0
  9 11  1  0  0  0  0
  9 16  1  0  0  0  0
 11 12  1  0  0  0  0
 11 13  1  0  0  0  0
 11 14  1  0  0  0  0
 14 15  1  0  0  0  0
 16 17  2  0  0  0  0
 16 18  1  0  0  0  0
 18 19  1  0  0  0  0
 18 20  1  0  0  0  0
 20 21  1  0  0  0  0
 20 22  1  0  0  0  0
 20 23  1  0  0  0  0
M  END
$$$$

  -OEChem-01062216093D

 23 22  0     1  0  0  0  0  0999 V2000
   -3.0309   -3.4247    1.0778 H   0  0  0  0  0  0  0  0  0  0  0  0
   -2.9007   -2.3637    0.8460 C   0  0  0  0  0  0  0  0  0  0  0  0
   -3.2023   -1.7758    1.7166 H   0  0  0  0  0  0  0  0  0  0  0  0
   -3.5432   -2.1067    0.0003 H   0  0  0  0  0  0  0  0  0  0  0  0
   -1.4511   -2.0767    0.5032 C   0  0  0  0  0  0  0  0  0  0  0  0
   -0.6765   -3.0064    0.3618 O   0  0  0  0  0  0  0  0  0  0  0  0
   -1.0701   -0.7796    0.2243 N   0  0  0  0  0  0  0  0  0  0  0  0
   -1.8229   -0.1154    0.3907 H   0  0  0  0  0  0  0  0  0  0  0  0
    0.2772   -0.1739    0.3660 C   0  0  1  0  0  0  0  0  0  0  0  0
    0.6962   -0.1090   -0.6423 H   0  0  0  0  0  0  0  0  0  0  0  0
    0.0448    1.2653    0.8560 C   0  0  0  0  0  0  0  0  0  0  0  0
    0.9889    1.8209    0.8608 H   0  0  0  0  0  0  0  0  0  0  0  0
   -0.6359    1.7836    0.1726 H   0  0  0  0  0  0  0  0  0  0  0  0
   -0.5179    1.2528    2.1710 O   0  0  0  0  0  0  0  0  0  0  0  0
    0.1474    0.8843    2.7899 H   0  0  0  0  0  0  0  0  0  0  0  0
    1.3862   -0.8824    1.1998 C   0  0  0  0  0  0  0  0  0  0  0  0
    1.8934   -0.3077    2.1596 O   0  0  0  0  0  0  0  0  0  0  0  0
    1.8508   -2.1441    0.8856 N   0  0  0  0  0  0  0  0  0  0  0  0
    1.2018   -2.6986    0.3207 H   0  0  0  0  0  0  0  0  0  0  0  0
    2.7968   -2.8705    1.7234 C   0  0  0  0  0  0  0  0  0  0  0  0
    2.3653   -3.0624    2.7112 H   0  0  0  0  0  0  0  0  0  0  0  0
    3.0469   -3.8300    1.2608 H   0  0  0  0  0  0  0  0  0  0  0  0
    3.7218   -2.2976    1.8466 H   0  0  0  0  0  0  0  0  0  0  0  0
  1  2  1  0  0  0  0
  2  3  1  0  0  0  0
  2  4  1  0  0  0  0
  2  5  1  0  0  0  0
  5  6  2  0  0  0  0
  5  7  1  0  0  0  0
  7  8  1  0  0  0  0
  7  9  1  0  0  0  0
  9 10  1  0  0  0  0
  9 11  1  0  0  0  0
  9 16  1  0  0  0  0
 11 12  1  0  0  0  0
 11 13  1  0  0  0  0
 11 14  1  0  0  0  0
 14 15  1  0  0  0  0
 16 17  2  0  0  0  0
 16 18  1  0  0  0  0
 18 19  1  0  0  0  0
 18 20  1  0  0  0  0
 20 21  1  0  0  0  0
 20 22  1  0  0  0  0
 20 23  1  0  0  0  0
M  END
$$$$

  -OEChem-01062216093D

 23 22  0     1  0  0  0  0  0999 V2000
   -2.9009   -3.4656    1.1168 H   0  0  0  0  0  0  0  0  0  0  0  0
   -2.8175   -2.4024    0.8739 C   0  0  0  0  0  0  0  0  0  0  0  0
   -3.1308   -1.8190    1.7433 H   0  0  0  0  0  0  0  0  0  0  0  0
   -3.4814   -2.1792    0.0352 H   0  0  0  0  0  0  0  0  0  0  0  0
   -1.3855   -2.0601    0.5088 C   0  0  0  0  0  0  0  0  0  0  0  0
   -0.5687   -2.9545    0.3689 O   0  0  0  0  0  0  0  0  0  0  0  0
   -1.0541   -0.7538    0.2111 N   0  0  0  0  0  0  0  0  0  0  0  0
   -1.8183   -0.1068    0.3928 H   0  0  0  0  0  0  0  0  0  0  0  0
    0.2853   -0.1382    0.3585 C   0  0  1  0  0  0  0  0  0  0  0  0
    0.7170   -0.0703   -0.6442 H   0  0  0  0  0  0  0  0  0  0  0  0
    0.0494    1.2989    0.8510 C   0  0  0  0  0  0  0  0  0  0  0  0
    0.9964    1.8492    0.8638 H   0  0  0  0  0  0  0  0  0  0  0  0
   -0.6264    1.8212    0.1659 H   0  0  0  0  0  0  0  0  0  0  0  0
   -0.5159    1.2843    2.1648 O   0  0  0  0  0  0  0  0  0  0  0  0
    0.1271    0.8570    2.7723 H   0  0  0  0  0  0  0  0  0  0  0  0
    1.3634   -0.8635    1.2132 C   0  0  0  0  0  0  0  0  0  0  0  0
    1.7143   -0.3989    2.2953 O   0  0  0  0  0  0  0  0  0  0  0  0
    2.0146   -1.9812    0.7282 N   0  0  0  0  0  0  0  0  0  0  0  0
    1.4527   -2.5165    0.0634 H   0  0  0  0  0  0  0  0  0  0  0  0
    2.9738   -2.7297    1.5310 C   0  0  0  0  0  0  0  0  0  0  0  0
    2.4888   -3.1403    2.4228 H   0  0  0  0  0  0  0  0  0  0  0  0
    3.3869   -3.5578    0.9473 H   0  0  0  0  0  0  0  0  0  0  0  0
    3.8016   -2.0849    1.8444 H   0  0  0  0  0  0  0  0  0  0  0  0
  1  2  1  0  0  0  0
  2  3  1  0  0  0  0
  2  4  1  0  0  0  0
  2  5  1  0  0  0  0
  5  6  2  0  0  0  0
  5  7  1  0  0  0  0
  7  8  1  0  0  0  0
  7  9  1  0  0  0  0
  9 10  1  0  0  0  0
  9 11  1  0  0  0  0
  9 16  1  0  0  0  0
 11 12  1  0  0  0  0
 11 13  1  0  0  0  0
 11 14  1  0  0  0  0
 14 15  1  0  0  0  0
 16 17  2  0  0  0  0
 16 18  1  0  0  0  0
 18 19  1  0  0  0  0
 18 20  1  0  0  0  0
 20 21  1  0  0  0  0
 20 22  1  0  0  0  0
 20 23  1  0  0  0  0
M  END
$$$$

  -OEChem-01062216093D

 23 22  0     1  0  0  0  0  0999 V2000
   -2.8021   -3.4968    1.1500 H   0  0  0  0  0  0  0  0  0  0  0  0
   -2.7549   -2.4325    0.9027 C   0  0  0  0  0  0  0  0  0  0  0  0
   -3.0782   -1.8557    1.7729 H   0  0  0  0  0  0  0  0  0  0  0  0
   -3.4322   -2.2337    0.0686 H   0  0  0  0  0  0  0  0  0  0  0  0
   -1.3379   -2.0472    0.5232 C   0  0  0  0  0  0  0  0  0  0  0  0
   -0.4893   -2.9136    0.3903 O   0  0  0  0  0  0  0  0  0  0  0  0
   -1.0479   -0.7349    0.2066 N   0  0  0  0  0  0  0  0  0  0  0  0
   -1.8214   -0.1024    0.3985 H   0  0  0  0  0  0  0  0  0  0  0  0
    0.2855   -0.1105    0.3511 C   0  0  1  0  0  0  0  0  0  0  0  0
    0.7206   -0.0420   -0.6500 H   0  0  0  0  0  0  0  0  0  0  0  0
    0.0525    1.3259    0.8450 C   0  0  0  0  0  0  0  0  0  0  0  0
    1.0036    1.8691    0.8582 H   0  0  0  0  0  0  0  0  0  0  0  0
   -0.6210    1.8532    0.1618 H   0  0  0  0  0  0  0  0  0  0  0  0
   -0.5075    1.3142    2.1611 O   0  0  0  0  0  0  0  0  0  0  0  0
    0.1013    0.8156    2.7517 H   0  0  0  0  0  0  0  0  0  0  0  0
    1.3459   -0.8436    1.2173 C   0  0  0  0  0  0  0  0  0  0  0  0
    1.5199   -0.5246    2.3916 O   0  0  0  0  0  0  0  0  0  0  0  0
    2.1988   -1.7625    0.6352 N   0  0  0  0  0  0  0  0  0  0  0  0
    1.8107   -2.2183   -0.1890 H   0  0  0  0  0  0  0  0  0  0  0  0
    3.1571   -2.5286    1.4226 C   0  0  0  0  0  0  0  0  0  0  0  0
    2.6370   -3.1494    2.1599 H   0  0  0  0  0  0  0  0  0  0  0  0
    3.7433   -3.1820    0.7694 H   0  0  0  0  0  0  0  0  0  0  0  0
    3.8475   -1.8600    1.9476 H   0  0  0  0  0  0  0  0  0  0  0  0
  1  2  1  0  0  0  0
  2  3  1  0  0  0  0
  2  4  1  0  0  0  0
  2  5  1  0  0  0  0
  5  6  2  0  0  0  0
  5  7  1  0  0  0  0
  7  8  1  0  0  0  0
  7  9  1  0  0  0  0
  9 10  1  0  0  0  0
  9 11  1  0  0  0  0
  9 16  1  0  0  0  0
 11 12  1  0  0  0  0
 11 13  1  0  0  0  0
 11 14  1  0  0  0  0
 14 15  1  0  0  0  0
 16 17  2  0  0  0  0
 16 18  1  0  0  0  0
 18 19  1  0  0  0  0
 18 20  1  0  0  0  0
 20 21  1  0  0  0  0
 20 22  1  0  0  0  0
 20 23  1  0  0  0  0
M  END
$$$$

  -OEChem-01062216093D

 23 22  0     1  0  0  0  0  0999 V2000
   -2.7690   -3.5188    1.1204 H   0  0  0  0  0  0  0  0  0  0  0  0
   -2.7239   -2.4422    0.9329 C   0  0  0  0  0  0  0  0  0  0  0  0
   -3.0084   -1.9147    1.8467 H   0  0  0  0  0  0  0  0  0  0  0  0
   -3.4324   -2.1927    0.1395 H   0  0  0  0  0  0  0  0  0  0  0  0
   -1.3197   -2.0423    0.5216 C   0  0  0  0  0  0  0  0  0  0  0  0
   -0.4605   -2.8973    0.3792 O   0  0  0  0  0  0  0  0  0  0  0  0
   -1.0497   -0.7282    0.1936 N   0  0  0  0  0  0  0  0  0  0  0  0
   -1.8256   -0.1024    0.3973 H   0  0  0  0  0  0  0  0  0  0  0  0
    0.2813   -0.1017    0.3396 C   0  0  1  0  0  0  0  0  0  0  0  0
    0.7163   -0.0318   -0.6611 H   0  0  0  0  0  0  0  0  0  0  0  0
    0.0524    1.3320    0.8407 C   0  0  0  0  0  0  0  0  0  0  0  0
    1.0061    1.8699    0.8570 H   0  0  0  0  0  0  0  0  0  0  0  0
   -0.6194    1.8666    0.1614 H   0  0  0  0  0  0  0  0  0  0  0  0
   -0.5048    1.3156    2.1579 O   0  0  0  0  0  0  0  0  0  0  0  0
    0.0607    0.7482    2.7309 H   0  0  0  0  0  0  0  0  0  0  0  0
    1.3328   -0.8345    1.2145 C   0  0  0  0  0  0  0  0  0  0  0  0
    1.3320   -0.6841    2.4345 O   0  0  0  0  0  0  0  0  0  0  0  0
    2.3796   -1.5142    0.6194 N   0  0  0  0  0  0  0  0  0  0  0  0
    2.2096   -1.8177   -0.3359 H   0  0  0  0  0  0  0  0  0  0  0  0
    3.3543   -2.2664    1.4001 C   0  0  0  0  0  0  0  0  0  0  0  0
    2.8592   -3.0653    1.9623 H   0  0  0  0  0  0  0  0  0  0  0  0
    4.1001   -2.7173    0.7385 H   0  0  0  0  0  0  0  0  0  0  0  0
    3.8741   -1.6087    2.1047 H   0  0  0  0  0  0  0  0  0  0  0  0
  1  2  1  0  0  0  0
  2  3  1  0  0  0  0
  2  4  1  0  0  0  0
  2  5  1  0  0  0  0
  5  6  2  0  0  0  0
  5  7  1  0  0  0  0
  7  8  1  0  0  0  0
  7  9  1  0  0  0  0
  9 10  1  0  0  0  0
  9 11  1  0  0  0  0
  9 16  1  0  0  0  0
 11 12  1  0  0  0  0
 11 13  1  0  0  0  0
 11 14  1  0  0  0  0
 14 15  1  0  0  0  0
 16 17  2  0  0  0  0
 16 18  1  0  0  0  0
 18 19  1  0  0  0  0
 18 20  1  0  0  0  0
 20 21  1  0  0  0  0
 20 22  1  0  0  0  0
 20 23  1  0  0  0  0
M  END
$$$$

  -OEChem-01062216093D

 23 22  0     1  0  0  0  0  0999 V2000
   -2.6250   -3.6117    1.0895 H   0  0  0  0  0  0  0  0  0  0  0  0
   -2.6185   -2.5258    0.9598 C   0  0  0  0  0  0  0  0  0  0  0  0
   -2.8135   -2.0566    1.9275 H   0  0  0  0  0  0  0  0  0  0  0  0
   -3.4098   -2.2482    0.2596 H   0  0  0  0  0  0  0  0  0  0  0  0
   -1.2715   -2.0728    0.4305 C   0  0  0  0  0  0  0  0  0  0  0  0
   -0.4376   -2.8981    0.0907 O   0  0  0  0  0  0  0  0  0  0  0  0
   -1.0409   -0.7338    0.1862 N   0  0  0  0  0  0  0  0  0  0  0  0
   -1.8012   -0.1524    0.5285 H   0  0  0  0  0  0  0  0  0  0  0  0
    0.2867   -0.1269    0.4060 C   0  0  1  0  0  0  0  0  0  0  0  0
    0.7406   -0.0413   -0.5847 H   0  0  0  0  0  0  0  0  0  0  0  0
    0.0774    1.3090    0.9092 C   0  0  0  0  0  0  0  0  0  0  0  0
    1.0504    1.8078    0.9696 H   0  0  0  0  0  0  0  0  0  0  0  0
   -0.5378    1.8675    0.1960 H   0  0  0  0  0  0  0  0  0  0  0  0
   -0.5419    1.3354    2.1987 O   0  0  0  0  0  0  0  0  0  0  0  0
   -0.4403    2.2050    2.6227 H   0  0  0  0  0  0  0  0  0  0  0  0
    1.3222   -0.9159    1.2515 C   0  0  0  0  0  0  0  0  0  0  0  0
    1.1369   -1.1417    2.4419 O   0  0  0  0  0  0  0  0  0  0  0  0
    2.5325   -1.2835    0.6877 N   0  0  0  0  0  0  0  0  0  0  0  0
    2.5697   -1.2773   -0.3268 H   0  0  0  0  0  0  0  0  0  0  0  0
    3.4962   -2.1161    1.3976 C   0  0  0  0  0  0  0  0  0  0  0  0
    3.0585   -3.0928    1.6301 H   0  0  0  0  0  0  0  0  0  0  0  0
    4.3874   -2.2718    0.7822 H   0  0  0  0  0  0  0  0  0  0  0  0
    3.8045   -1.6365    2.3326 H   0  0  0  0  0  0  0  0  0  0  0  0
  1  2  1  0  0  0  0
  2  3  1  0  0  0  0
  2  4  1  0  0  0  0
  2  5  1  0  0  0  0
  5  6  2  0  0  0  0
  5  7  1  0  0  0  0
  7  8  1  0  0  0  0
  7  9  1  0  0  0  0
  9 10  1  0  0  0  0
  9 11  1  0  0  0  0
  9 16  1  0  0  0  0
 11 12  1  0  0  0  0
 11 13  1  0  0  0  0
 11 14  1  0  0  0  0
 14 15  1  0  0  0  0
 16 17  2  0  0  0  0
 16 18  1  0  0  0  0
 18 19  1  0  0  0  0
 18 20  1  0  0  0  0
 20 21  1  0  0  0  0
 20 22  1  0  0  0  0
 20 23  1  0  0  0  0
M  END
$$$$

  -OEChem-01062216093D

 23 22  0     1  0  0  0  0  0999 V2000
   -2.6168   -3.6094    1.1006 H   0  0  0  0  0  0  0  0  0  0  0  0
   -2.6073   -2.5222    0.9831 C   0  0  0  0  0  0  0  0  0  0  0  0
   -2.7586   -2.0625    1.9630 H   0  0  0  0  0  0  0  0  0  0  0  0
   -3.4238   -2.2307    0.3186 H   0  0  0  0  0  0  0  0  0  0  0  0
   -1.2790   -2.0731    0.4053 C   0  0  0  0  0  0  0  0  0  0  0  0
   -0.4681   -2.8989    0.0146 O   0  0  0  0  0  0  0  0  0  0  0  0
   -1.0462   -0.7346    0.1597 N   0  0  0  0  0  0  0  0  0  0  0  0
   -1.8012   -0.1551    0.5159 H   0  0  0  0  0  0  0  0  0  0  0  0
    0.2842   -0.1358    0.3888 C   0  0  1  0  0  0  0  0  0  0  0  0
    0.7429   -0.0531   -0.6000 H   0  0  0  0  0  0  0  0  0  0  0  0
    0.0879    1.2961    0.9057 C   0  0  0  0  0  0  0  0  0  0  0  0
    1.0639    1.7885    0.9707 H   0  0  0  0  0  0  0  0  0  0  0  0
   -0.5251    1.8651    0.1990 H   0  0  0  0  0  0  0  0  0  0  0  0
   -0.5315    1.3100    2.1953 O   0  0  0  0  0  0  0  0  0  0  0  0
   -0.4791    2.1911    2.6044 H   0  0  0  0  0  0  0  0  0  0  0  0
    1.3121   -0.9255    1.2418 C   0  0  0  0  0  0  0  0  0  0  0  0
    1.0259   -1.3464    2.3574 O   0  0  0  0  0  0  0  0  0  0  0  0
    2.6251   -1.0301    0.8134 N   0  0  0  0  0  0  0  0  0  0  0  0
    2.8060   -0.8071   -0.1600 H   0  0  0  0  0  0  0  0  0  0  0  0
    3.6237   -1.8064    1.5391 C   0  0  0  0  0  0  0  0  0  0  0  0
    3.3305   -2.8608    1.5835 H   0  0  0  0  0  0  0  0  0  0  0  0
    4.5942   -1.7359    1.0388 H   0  0  0  0  0  0  0  0  0  0  0  0
    3.7360   -1.4290    2.5610 H   0  0  0  0  0  0  0  0  0  0  0  0
  1  2  1  0  0  0  0
  2  3  1  0  0  0  0
  2  4  1  0  0  0  0
  2  5  1  0  0  0  0
  5  6  2  0  0  0  0
  5  7  1  0  0  0  0
  7  8  1  0  0  0  0
  7  9  1  0  0  0  0
  9 10  1  0  0  0  0
  9 11  1  0  0  0  0
  9 16  1  0  0  0  0
 11 12  1  0  0  0  0
 11 13  1  0  0  0  0
 11 14  1  0  0  0  0
 14 15  1  0  0  0  0
 16 17  2  0  0  0  0
 16 18  1  0  0  0  0
 18 19  1  0  0  0  0
 18 20  1  0  0  0  0
 20 21  1  0  0  0  0
 20 22  1  0  0  0  0
 20 23  1  0  0  0  0
M  END
$$$$

  -OEChem-01062216093D

 23 22  0     1  0  0  0  0  0999 V2000
   -2.6427   -3.5957    1.0961 H   0  0  0  0  0  0  0  0  0  0  0  0
   -2.6126   -2.5070    0.9982 C   0  0  0  0  0  0  0  0  0  0  0  0
   -2.7186   -2.0632    1.9913 H   0  0  0  0  0  0  0  0  0  0  0  0
   -3.4448   -2.1845    0.3685 H   0  0  0  0  0  0  0  0  0  0  0  0
   -1.2953   -2.0768    0.3823 C   0  0  0  0  0  0  0  0  0  0  0  0
   -0.5170   -2.9107   -0.0547 O   0  0  0  0  0  0  0  0  0  0  0  0
   -1.0465   -0.7416    0.1368 N   0  0  0  0  0  0  0  0  0  0  0  0
   -1.7919   -0.1576    0.5049 H   0  0  0  0  0  0  0  0  0  0  0  0
    0.2902   -0.1578    0.3718 C   0  0  1  0  0  0  0  0  0  0  0  0
    0.7528   -0.0764   -0.6154 H   0  0  0  0  0  0  0  0  0  0  0  0
    0.0969    1.2693    0.9020 C   0  0  0  0  0  0  0  0  0  0  0  0
    1.0719    1.7624    0.9743 H   0  0  0  0  0  0  0  0  0  0  0  0
   -0.5153    1.8460    0.2007 H   0  0  0  0  0  0  0  0  0  0  0  0
   -0.5254    1.2647    2.1903 O   0  0  0  0  0  0  0  0  0  0  0  0
   -0.5005    2.1471    2.5998 H   0  0  0  0  0  0  0  0  0  0  0  0
    1.3169   -0.9451    1.2293 C   0  0  0  0  0  0  0  0  0  0  0  0
    0.9852   -1.5251    2.2578 O   0  0  0  0  0  0  0  0  0  0  0  0
    2.6709   -0.7974    0.9748 N   0  0  0  0  0  0  0  0  0  0  0  0
    2.9323   -0.3828    0.0865 H   0  0  0  0  0  0  0  0  0  0  0  0
    3.6970   -1.4887    1.7470 C   0  0  0  0  0  0  0  0  0  0  0  0
    3.5762   -2.5737    1.6583 H   0  0  0  0  0  0  0  0  0  0  0  0
    4.6922   -1.2190    1.3808 H   0  0  0  0  0  0  0  0  0  0  0  0
    3.6336   -1.2127    2.8050 H   0  0  0  0  0  0  0  0  0  0  0  0
  1  2  1  0  0  0  0
  2  3  1  0  0  0  0
  2  4  1  0  0  0  0
  2  5  1  0  0  0  0
  5  6  2  0  0  0  0
  5  7  1  0  0  0  0
  7  8  1  0  0  0  0
  7  9  1  0  0  0  0
  9 10  1  0  0  0  0
  9 11  1  0  0  0  0
  9 16  1  0  0  0  0
 11 12  1  0  0  0  0
 11 13  1  0  0  0  0
 11 14  1  0  0  0  0
 14 15  1  0  0  0  0
 16 17  2  0  0  0  0
 16 18  1  0  0  0  0
 18 19  1  0  0  0  0
 18 20  1  0  0  0  0
 20 21  1  0  0  0  0
 20 22  1  0  0  0  0
 20 23  1  0  0  0  0
M  END
$$$$

  -OEChem-01062216093D

 23 22  0     1  0  0  0  0  0999 V2000
   -2.6603   -3.5791    1.1048 H   0  0  0  0  0  0  0  0  0  0  0  0
   -2.6120   -2.4899    1.0212 C   0  0  0  0  0  0  0  0  0  0  0  0
   -2.6625   -2.0597    2.0245 H   0  0  0  0  0  0  0  0  0  0  0  0
   -3.4650   -2.1403    0.4353 H   0  0  0  0  0  0  0  0  0  0  0  0
   -1.3150   -2.0780    0.3522 C   0  0  0  0  0  0  0  0  0  0  0  0
   -0.5834   -2.9185   -0.1478 O   0  0  0  0  0  0  0  0  0  0  0  0
   -1.0446   -0.7463    0.1136 N   0  0  0  0  0  0  0  0  0  0  0  0
   -1.7762   -0.1567    0.4999 H   0  0  0  0  0  0  0  0  0  0  0  0
    0.3007   -0.1816    0.3524 C   0  0  1  0  0  0  0  0  0  0  0  0
    0.7650   -0.0967   -0.6339 H   0  0  0  0  0  0  0  0  0  0  0  0
    0.1099    1.2402    0.8979 C   0  0  0  0  0  0  0  0  0  0  0  0
    1.0830    1.7360    0.9758 H   0  0  0  0  0  0  0  0  0  0  0  0
   -0.5033    1.8238    0.2033 H   0  0  0  0  0  0  0  0  0  0  0  0
   -0.5145    1.2170    2.1852 O   0  0  0  0  0  0  0  0  0  0  0  0
   -0.5099    2.0988    2.5973 H   0  0  0  0  0  0  0  0  0  0  0  0
    1.3321   -0.9700    1.2070 C   0  0  0  0  0  0  0  0  0  0  0  0
    0.9901   -1.7110    2.1221 O   0  0  0  0  0  0  0  0  0  0  0  0
    2.6667   -0.5978    1.1615 N   0  0  0  0  0  0  0  0  0  0  0  0
    2.9584    0.0100    0.4035 H   0  0  0  0  0  0  0  0  0  0  0  0
    3.6899   -1.2007    2.0083 C   0  0  0  0  0  0  0  0  0  0  0  0
    3.7510   -2.2789    1.8257 H   0  0  0  0  0  0  0  0  0  0  0  0
    4.6673   -0.7572    1.7959 H   0  0  0  0  0  0  0  0  0  0  0  0
    3.4591   -1.0348    3.0660 H   0  0  0  0  0  0  0  0  0  0  0  0
  1  2  1  0  0  0  0
  2  3  1  0  0  0  0
  2  4  1  0  0  0  0
  2  5  1  0  0  0  0
  5  6  2  0  0  0  0
  5  7  1  0  0  0  0
  7  8  1  0  0  0  0
  7  9  1  0  0  0  0
  9 10  1  0  0  0  0
  9 11  1  0  0  0  0
  9 16  1  0  0  0  0
 11 12  1  0  0  0  0
 11 13  1  0  0  0  0
 11 14  1  0  0  0  0
 14 15  1  0  0  0  0
 16 17  2  0  0  0  0
 16 18  1  0  0  0  0
 18 19  1  0  0  0  0
 18 20  1  0  0  0  0
 20 21  1  0  0  0  0
 20 22  1  0  0  0  0
 20 23  1  0  0  0  0
M  END
$$$$

  -OEChem-01062216093D

 23 22  0     1  0  0  0  0  0999 V2000
   -2.6145   -3.5165    1.2852 H   0  0  0  0  0  0  0  0  0  0  0  0
   -2.5308   -2.4314    1.1784 C   0  0  0  0  0  0  0  0  0  0  0  0
   -2.3645   -1.9948    2.1664 H   0  0  0  0  0  0  0  0  0  0  0  0
   -3.4629   -2.0413    0.7633 H   0  0  0  0  0  0  0  0  0  0  0  0
   -1.3682   -2.0899    0.2668 C   0  0  0  0  0  0  0  0  0  0  0  0
   -0.8878   -2.9422   -0.4618 O   0  0  0  0  0  0  0  0  0  0  0  0
   -1.0386   -0.7738    0.0243 N   0  0  0  0  0  0  0  0  0  0  0  0
   -1.7384   -0.1726    0.4469 H   0  0  0  0  0  0  0  0  0  0  0  0
    0.3222   -0.2423    0.2712 C   0  0  1  0  0  0  0  0  0  0  0  0
    0.6905    0.0792   -0.7066 H   0  0  0  0  0  0  0  0  0  0  0  0
    0.1372    1.0147    1.1368 C   0  0  0  0  0  0  0  0  0  0  0  0
    1.0932    1.5345    1.2545 H   0  0  0  0  0  0  0  0  0  0  0  0
   -0.5502    1.7069    0.6389 H   0  0  0  0  0  0  0  0  0  0  0  0
   -0.3823    0.6707    2.4253 O   0  0  0  0  0  0  0  0  0  0  0  0
   -0.3973    1.4414    3.0201 H   0  0  0  0  0  0  0  0  0  0  0  0
    1.4727   -1.1318    0.8333 C   0  0  0  0  0  0  0  0  0  0  0  0
    1.2916   -2.2209    1.3605 O   0  0  0  0  0  0  0  0  0  0  0  0
    2.7220   -0.5613    1.0318 N   0  0  0  0  0  0  0  0  0  0  0  0
    2.8864    0.3610    0.6435 H   0  0  0  0  0  0  0  0  0  0  0  0
    3.8270   -1.2501    1.6907 C   0  0  0  0  0  0  0  0  0  0  0  0
    4.0681   -2.1796    1.1640 H   0  0  0  0  0  0  0  0  0  0  0  0
    4.7185   -0.6160    1.6975 H   0  0  0  0  0  0  0  0  0  0  0  0
    3.5661   -1.4898    2.7269 H   0  0  0  0  0  0  0  0  0  0  0  0
  1  2  1  0  0  0  0
  2  3  1  0  0  0  0
  2  4  1  0  0  0  0
  2  5  1  0  0  0  0
  5  6  2  0  0  0  0
  5  7  1  0  0  0  0
  7  8  1  0  0  0  0
  7  9  1  0  0  0  0
  9 10  1  0  0  0  0
  9 11  1  0  0  0  0
  9 16  1  0  0  0  0
 11 12  1  0  0  0  0
 11 13  1  0  0  0  0
 11 14  1  0  0  0  0
 14 15  1  0  0  0  0
 16 17  2  0  0  0  0
 16 18  1  0  0  0  0
 18 19  1  0  0  0  0
 18 20  1  0  0  0  0
 20 21  1  0  0  0  0
 20 22  1  0  0  0  0
 20 23  1  0  0  0  0
M  END
$$$$

  -OEChem-01062216093D

 23 22  0     1  0  0  0  0  0999 V2000
   -2.8633   -3.6544    0.9812 H   0  0  0  0  0  0  0  0  0  0  0  0
   -2.7241   -2.6622    0.5423 C   0  0  0  0  0  0  0  0  0  0  0  0
   -3.6132   -2.0599    0.7422 H   0  0  0  0  0  0  0  0  0  0  0  0
   -2.5983   -2.7730   -0.5372 H   0  0  0  0  0  0  0  0  0  0  0  0
   -1.4990   -1.9965    1.1411 C   0  0  0  0  0  0  0  0  0  0  0  0
   -0.9785   -2.4978    2.1224 O   0  0  0  0  0  0  0  0  0  0  0  0
   -1.1460   -0.7300    0.7100 N   0  0  0  0  0  0  0  0  0  0  0  0
   -1.7822   -0.3670    0.0098 H   0  0  0  0  0  0  0  0  0  0  0  0
    0.2338   -0.1787    0.6453 C   0  0  1  0  0  0  0  0  0  0  0  0
    0.4358    0.0373   -0.4071 H   0  0  0  0  0  0  0  0  0  0  0  0
    0.2523    1.1650    1.3984 C   0  0  0  0  0  0  0  0  0  0  0  0
    1.2062    1.6788    1.2446 H   0  0  0  0  0  0  0  0  0  0  0  0
   -0.5302    1.8097    0.9849 H   0  0  0  0  0  0  0  0  0  0  0  0
    0.0157    0.9914    2.7979 O   0  0  0  0  0  0  0  0  0  0  0  0
   -0.1330    1.8417    3.2458 H   0  0  0  0  0  0  0  0  0  0  0  0
    1.4282   -1.0724    1.0835 C   0  0  0  0  0  0  0  0  0  0  0  0
    1.4851   -2.2219    0.6594 O   0  0  0  0  0  0  0  0  0  0  0  0
    2.6623   -0.4906    1.3360 N   0  0  0  0  0  0  0  0  0  0  0  0
    2.6247    0.4302    1.7612 H   0  0  0  0  0  0  0  0  0  0  0  0
    3.8769   -1.2752    1.5354 C   0  0  0  0  0  0  0  0  0  0  0  0
    4.1287   -1.8338    0.6277 H   0  0  0  0  0  0  0  0  0  0  0  0
    4.7168   -0.6167    1.7759 H   0  0  0  0  0  0  0  0  0  0  0  0
    3.7438   -1.9840    2.3597 H   0  0  0  0  0  0  0  0  0  0  0  0
  1  2  1  0  0  0  0
  2  3  1  0  0  0  0
  2  4  1  0  0  0  0
  2  5  1  0  0  0  0
  5  6  2  0  0  0  0
  5  7  1  0  0  0  0
  7  8  1  0  0  0  0
  7  9  1  0  0  0  0
  9 10  1  0  0  0  0
  9 11  1  0  0  0  0
  9 16  1  0  0  0  0
 11 12  1  0  0  0  0
 11 13  1  0  0  0  0
 11 14  1  0  0  0  0
 14 15  1  0  0  0  0
 16 17  2  0  0  0  0
 16 18  1  0  0  0  0
 18 19  1  0  0  0  0
 18 20  1  0  0  0  0
 20 21  1  0  0  0  0
 20 22  1  0  0  0  0
 20 23  1  0  0  0  0
M  END
$$$$

  -OEChem-01062216093D

 23 22  0     1  0  0  0  0  0999 V2000
   -2.8811   -3.6480    0.9879 H   0  0  0  0  0  0  0  0  0  0  0  0
   -2.7577   -2.6428    0.5745 C   0  0  0  0  0  0  0  0  0  0  0  0
   -3.6185   -2.0348    0.8628 H   0  0  0  0  0  0  0  0  0  0  0  0
   -2.7167   -2.7164   -0.5148 H   0  0  0  0  0  0  0  0  0  0  0  0
   -1.4791   -2.0173    1.1009 C   0  0  0  0  0  0  0  0  0  0  0  0
   -0.8817   -2.5758    2.0041 O   0  0  0  0  0  0  0  0  0  0  0  0
   -1.1341   -0.7459    0.6765 N   0  0  0  0  0  0  0  0  0  0  0  0
   -1.7941   -0.3540    0.0149 H   0  0  0  0  0  0  0  0  0  0  0  0
    0.2376   -0.1762    0.6210 C   0  0  1  0  0  0  0  0  0  0  0  0
    0.4478    0.0352   -0.4309 H   0  0  0  0  0  0  0  0  0  0  0  0
    0.2426    1.1742    1.3622 C   0  0  0  0  0  0  0  0  0  0  0  0
    1.1953    1.6910    1.2069 H   0  0  0  0  0  0  0  0  0  0  0  0
   -0.5411    1.8103    0.9381 H   0  0  0  0  0  0  0  0  0  0  0  0
   -0.0007    1.0134    2.7632 O   0  0  0  0  0  0  0  0  0  0  0  0
   -0.1718    1.8677    3.1959 H   0  0  0  0  0  0  0  0  0  0  0  0
    1.4242   -1.0723    1.0691 C   0  0  0  0  0  0  0  0  0  0  0  0
    1.5912   -2.1338    0.4769 O   0  0  0  0  0  0  0  0  0  0  0  0
    2.5581   -0.5104    1.6348 N   0  0  0  0  0  0  0  0  0  0  0  0
    2.3739    0.2936    2.2287 H   0  0  0  0  0  0  0  0  0  0  0  0
    3.7652   -1.2852    1.9010 C   0  0  0  0  0  0  0  0  0  0  0  0
    4.1927   -1.6655    0.9672 H   0  0  0  0  0  0  0  0  0  0  0  0
    4.5156   -0.6575    2.3907 H   0  0  0  0  0  0  0  0  0  0  0  0
    3.5391   -2.1333    2.5559 H   0  0  0  0  0  0  0  0  0  0  0  0
  1  2  1  0  0  0  0
  2  3  1  0  0  0  0
  2  4  1  0  0  0  0
  2  5  1  0  0  0  0
  5  6  2  0  0  0  0
  5  7  1  0  0  0  0
  7  8  1  0  0  0  0
  7  9  1  0  0  0  0
  9 10  1  0  0  0  0
  9 11  1  0  0  0  0
  9 16  1  0  0  0  0
 11 12  1  0  0  0  0
 11 13  1  0  0  0  0
 11 14  1  0  0  0  0
 14 15  1  0  0  0  0
 16 17  2  0  0  0  0
 16 18  1  0  0  0  0
 18 19  1  0  0  0  0
 18 20  1  0  0  0  0
 20 21  1  0  0  0  0
 20 22  1  0  0  0  0
 20 23  1  0  0  0  0
M  END
$$$$

  -OEChem-01062216093D

 23 22  0     1  0  0  0  0  0999 V2000
   -2.8991   -3.6439    0.9763 H   0  0  0  0  0  0  0  0  0  0  0  0
   -2.7912   -2.6206    0.6051 C   0  0  0  0  0  0  0  0  0  0  0  0
   -3.6116   -2.0149    0.9971 H   0  0  0  0  0  0  0  0  0  0  0  0
   -2.8447   -2.6376   -0.4860 H   0  0  0  0  0  0  0  0  0  0  0  0
   -1.4603   -2.0429    1.0498 C   0  0  0  0  0  0  0  0  0  0  0  0
   -0.7953   -2.6633    1.8604 O   0  0  0  0  0  0  0  0  0  0  0  0
   -1.1200   -0.7656    0.6388 N   0  0  0  0  0  0  0  0  0  0  0  0
   -1.8087   -0.3350    0.0327 H   0  0  0  0  0  0  0  0  0  0  0  0
    0.2433   -0.1774    0.5932 C   0  0  1  0  0  0  0  0  0  0  0  0
    0.4556    0.0408   -0.4572 H   0  0  0  0  0  0  0  0  0  0  0  0
    0.2326    1.1714    1.3372 C   0  0  0  0  0  0  0  0  0  0  0  0
    1.1860    1.6894    1.1878 H   0  0  0  0  0  0  0  0  0  0  0  0
   -0.5509    1.8047    0.9085 H   0  0  0  0  0  0  0  0  0  0  0  0
   -0.0150    1.0101    2.7390 O   0  0  0  0  0  0  0  0  0  0  0  0
   -0.1762    1.8676    3.1703 H   0  0  0  0  0  0  0  0  0  0  0  0
    1.4328   -1.0669    1.0417 C   0  0  0  0  0  0  0  0  0  0  0  0
    1.7279   -2.0228    0.3314 O   0  0  0  0  0  0  0  0  0  0  0  0
    2.4171   -0.5770    1.8835 N   0  0  0  0  0  0  0  0  0  0  0  0
    2.0788    0.1090    2.5554 H   0  0  0  0  0  0  0  0  0  0  0  0
    3.5949   -1.3583    2.2411 C   0  0  0  0  0  0  0  0  0  0  0  0
    4.1970   -1.5745    1.3525 H   0  0  0  0  0  0  0  0  0  0  0  0
    4.2159   -0.8019    2.9492 H   0  0  0  0  0  0  0  0  0  0  0  0
    3.2997   -2.3052    2.7056 H   0  0  0  0  0  0  0  0  0  0  0  0
  1  2  1  0  0  0  0
  2  3  1  0  0  0  0
  2  4  1  0  0  0  0
  2  5  1  0  0  0  0
  5  6  2  0  0  0  0
  5  7  1  0  0  0  0
  7  8  1  0  0  0  0
  7  9  1  0  0  0  0
  9 10  1  0  0  0  0
  9 11  1  0  0  0  0
  9 16  1  0  0  0  0
 11 12  1  0  0  0  0
 11 13  1  0  0  0  0
 11 14  1  0  0  0  0
 14 15  1  0  0  0  0
 16 17  2  0  0  0  0
 16 18  1  0  0  0  0
 18 19  1  0  0  0  0
 18 20  1  0  0  0  0
 20 21  1  0  0  0  0
 20 22  1  0  0  0  0
 20 23  1  0  0  0  0
M  END
$$$$

  -OEChem-01062216093D

 23 22  0     1  0  0  0  0  0999 V2000
   -2.9111   -3.6405    0.9474 H   0  0  0  0  0  0  0  0  0  0  0  0
   -2.8178   -2.5960    0.6366 C   0  0  0  0  0  0  0  0  0  0  0  0
   -3.5829   -2.0067    1.1474 H   0  0  0  0  0  0  0  0  0  0  0  0
   -2.9778   -2.5373   -0.4425 H   0  0  0  0  0  0  0  0  0  0  0  0
   -1.4386   -2.0693    0.9874 C   0  0  0  0  0  0  0  0  0  0  0  0
   -0.7157   -2.7500    1.6925 O   0  0  0  0  0  0  0  0  0  0  0  0
   -1.0993   -0.7866    0.5938 N   0  0  0  0  0  0  0  0  0  0  0  0
   -1.8183   -0.3087    0.0627 H   0  0  0  0  0  0  0  0  0  0  0  0
    0.2561   -0.1816    0.5650 C   0  0  1  0  0  0  0  0  0  0  0  0
    0.4721    0.0488   -0.4822 H   0  0  0  0  0  0  0  0  0  0  0  0
    0.2151    1.1615    1.3190 C   0  0  0  0  0  0  0  0  0  0  0  0
    1.1672    1.6869    1.1873 H   0  0  0  0  0  0  0  0  0  0  0  0
   -0.5678    1.7898    0.8823 H   0  0  0  0  0  0  0  0  0  0  0  0
   -0.0475    0.9924    2.7189 O   0  0  0  0  0  0  0  0  0  0  0  0
   -0.1963    1.8508    3.1537 H   0  0  0  0  0  0  0  0  0  0  0  0
    1.4560   -1.0545    1.0146 C   0  0  0  0  0  0  0  0  0  0  0  0
    1.8915   -1.8862    0.2254 O   0  0  0  0  0  0  0  0  0  0  0  0
    2.2543   -0.6896    2.0838 N   0  0  0  0  0  0  0  0  0  0  0  0
    1.7776   -0.1085    2.7723 H   0  0  0  0  0  0  0  0  0  0  0  0
    3.3803   -1.5015    2.5275 C   0  0  0  0  0  0  0  0  0  0  0  0
    4.1385   -1.5704    1.7405 H   0  0  0  0  0  0  0  0  0  0  0  0
    3.8427   -1.0542    3.4124 H   0  0  0  0  0  0  0  0  0  0  0  0
    3.0450   -2.5124    2.7831 H   0  0  0  0  0  0  0  0  0  0  0  0
  1  2  1  0  0  0  0
  2  3  1  0  0  0  0
  2  4  1  0  0  0  0
  2  5  1  0  0  0  0
  5  6  2  0  0  0  0
  5  7  1  0  0  0  0
  7  8  1  0  0  0  0
  7  9  1  0  0  0  0
  9 10  1  0  0  0  0
  9 11  1  0  0  0  0
  9 16  1  0  0  0  0
 11 12  1  0  0  0  0
 11 13  1  0  0  0  0
 11 14  1  0  0  0  0
 14 15  1  0  0  0  0
 16 17  2  0  0  0  0
 16 18  1  0  0  0  0
 18 19  1  0  0  0  0
 18 20  1  0  0  0  0
 20 21  1  0  0  0  0
 20 22  1  0  0  0  0
 20 23  1  0  0  0  0
M  END
$$$$

  -OEChem-01062216093D

 23 22  0     1  0  0  0  0  0999 V2000
   -2.9329   -3.6247    0.9570 H   0  0  0  0  0  0  0  0  0  0  0  0
   -2.8322   -2.5789    0.6528 C   0  0  0  0  0  0  0  0  0  0  0  0
   -3.5520   -1.9782    1.2139 H   0  0  0  0  0  0  0  0  0  0  0  0
   -3.0538   -2.5025   -0.4143 H   0  0  0  0  0  0  0  0  0  0  0  0
   -1.4226   -2.0889    0.9283 C   0  0  0  0  0  0  0  0  0  0  0  0
   -0.6599   -2.8176    1.5361 O   0  0  0  0  0  0  0  0  0  0  0  0
   -1.0834   -0.8009    0.5521 N   0  0  0  0  0  0  0  0  0  0  0  0
   -1.8264   -0.2810    0.0988 H   0  0  0  0  0  0  0  0  0  0  0  0
    0.2657   -0.1823    0.5476 C   0  0  1  0  0  0  0  0  0  0  0  0
    0.4903    0.0585   -0.4957 H   0  0  0  0  0  0  0  0  0  0  0  0
    0.1965    1.1552    1.3087 C   0  0  0  0  0  0  0  0  0  0  0  0
    1.1496    1.6838    1.1984 H   0  0  0  0  0  0  0  0  0  0  0  0
   -0.5807    1.7828    0.8606 H   0  0  0  0  0  0  0  0  0  0  0  0
   -0.0886    0.9795    2.7044 O   0  0  0  0  0  0  0  0  0  0  0  0
   -0.1950    1.8398    3.1481 H   0  0  0  0  0  0  0  0  0  0  0  0
    1.4737   -1.0378    1.0061 C   0  0  0  0  0  0  0  0  0  0  0  0
    2.0565   -1.7195    0.1699 O   0  0  0  0  0  0  0  0  0  0  0  0
    2.0656   -0.8542    2.2419 N   0  0  0  0  0  0  0  0  0  0  0  0
    1.4702   -0.3822    2.9220 H   0  0  0  0  0  0  0  0  0  0  0  0
    3.1389   -1.7099    2.7294 C   0  0  0  0  0  0  0  0  0  0  0  0
    4.0135   -1.6403    2.0744 H   0  0  0  0  0  0  0  0  0  0  0  0
    3.4377   -1.4041    3.7364 H   0  0  0  0  0  0  0  0  0  0  0  0
    2.8073   -2.7530    2.7658 H   0  0  0  0  0  0  0  0  0  0  0  0
  1  2  1  0  0  0  0
  2  3  1  0  0  0  0
  2  4  1  0  0  0  0
  2  5  1  0  0  0  0
  5  6  2  0  0  0  0
  5  7  1  0  0  0  0
  7  8  1  0  0  0  0
  7  9  1  0  0  0  0
  9 10  1  0  0  0  0
  9 11  1  0  0  0  0
  9 16  1  0  0  0  0
 11 12  1  0  0  0  0
 11 13  1  0  0  0  0
 11 14  1  0  0  0  0
 14 15  1  0  0  0  0
 16 17  2  0  0  0  0
 16 18  1  0  0  0  0
 18 19  1  0  0  0  0
 18 20  1  0  0  0  0
 20 21  1  0  0  0  0
 20 22  1  0  0  0  0
 20 23  1  0  0  0  0
M  END
$$$$

  -OEChem-01062216093D

 23 22  0     1  0  0  0  0  0999 V2000
   -2.9614   -3.6061    0.9319 H   0  0  0  0  0  0  0  0  0  0  0  0
   -2.8545   -2.5515    0.6619 C   0  0  0  0  0  0  0  0  0  0  0  0
   -3.5260   -1.9584    1.2871 H   0  0  0  0  0  0  0  0  0  0  0  0
   -3.1366   -2.4289   -0.3864 H   0  0  0  0  0  0  0  0  0  0  0  0
   -1.4201   -2.1022    0.8702 C   0  0  0  0  0  0  0  0  0  0  0  0
   -0.6360   -2.8736    1.3919 O   0  0  0  0  0  0  0  0  0  0  0  0
   -1.0699   -0.8146    0.5046 N   0  0  0  0  0  0  0  0  0  0  0  0
   -1.8266   -0.2553    0.1267 H   0  0  0  0  0  0  0  0  0  0  0  0
    0.2773   -0.1933    0.5298 C   0  0  1  0  0  0  0  0  0  0  0  0
    0.5187    0.0552   -0.5082 H   0  0  0  0  0  0  0  0  0  0  0  0
    0.1832    1.1370    1.2983 C   0  0  0  0  0  0  0  0  0  0  0  0
    1.1382    1.6669    1.2155 H   0  0  0  0  0  0  0  0  0  0  0  0
   -0.5842    1.7669    0.8368 H   0  0  0  0  0  0  0  0  0  0  0  0
   -0.1321    0.9491    2.6864 O   0  0  0  0  0  0  0  0  0  0  0  0
   -0.1913    1.8053    3.1466 H   0  0  0  0  0  0  0  0  0  0  0  0
    1.4857   -1.0341    1.0119 C   0  0  0  0  0  0  0  0  0  0  0  0
    2.2207   -1.5429    0.1728 O   0  0  0  0  0  0  0  0  0  0  0  0
    1.8616   -1.0668    2.3412 N   0  0  0  0  0  0  0  0  0  0  0  0
    1.1597   -0.7109    2.9890 H   0  0  0  0  0  0  0  0  0  0  0  0
    2.9058   -1.9473    2.8458 C   0  0  0  0  0  0  0  0  0  0  0  0
    3.8561   -1.7464    2.3403 H   0  0  0  0  0  0  0  0  0  0  0  0
    3.0470   -1.7886    3.9190 H   0  0  0  0  0  0  0  0  0  0  0  0
    2.6326   -2.9948    2.6809 H   0  0  0  0  0  0  0  0  0  0  0  0
  1  2  1  0  0  0  0
  2  3  1  0  0  0  0
  2  4  1  0  0  0  0
  2  5  1  0  0  0  0
  5  6  2  0  0  0  0
  5  7  1  0  0  0  0
  7  8  1  0  0  0  0
  7  9  1  0  0  0  0
  9 10  1  0  0  0  0
  9 11  1  0  0  0  0
  9 16  1  0  0  0  0
 11 12  1  0  0  0  0
 11 13  1  0  0  0  0
 11 14  1  0  0  0  0
 14 15  1  0  0  0  0
 16 17  2  0  0  0  0
 16 18  1  0  0  0  0
 18 19  1  0  0  0  0
 18 20  1  0  0  0  0
 20 21  1  0  0  0  0
 20 22  1  0  0  0  0
 20 23  1  0  0  0  0
M  END
$$$$

  -OEChem-01062216093D

 23 22  0     1  0  0  0  0  0999 V2000
   -3.0146   -3.5657    0.9459 H   0  0  0  0  0  0  0  0  0  0  0  0
   -2.8854   -2.5145    0.6724 C   0  0  0  0  0  0  0  0  0  0  0  0
   -3.5031   -1.9010    1.3326 H   0  0  0  0  0  0  0  0  0  0  0  0
   -3.2167   -2.3781   -0.3598 H   0  0  0  0  0  0  0  0  0  0  0  0
   -1.4278   -2.1143    0.8071 C   0  0  0  0  0  0  0  0  0  0  0  0
   -0.6350   -2.9287    1.2422 O   0  0  0  0  0  0  0  0  0  0  0  0
   -1.0593   -0.8299    0.4506 N   0  0  0  0  0  0  0  0  0  0  0  0
   -1.8235   -0.2329    0.1539 H   0  0  0  0  0  0  0  0  0  0  0  0
    0.2877   -0.2105    0.5107 C   0  0  1  0  0  0  0  0  0  0  0  0
    0.5502    0.0438   -0.5208 H   0  0  0  0  0  0  0  0  0  0  0  0
    0.1727    1.1116    1.2872 C   0  0  0  0  0  0  0  0  0  0  0  0
    1.1301    1.6412    1.2354 H   0  0  0  0  0  0  0  0  0  0  0  0
   -0.5825    1.7478    0.8147 H   0  0  0  0  0  0  0  0  0  0  0  0
   -0.1760    0.9022    2.6636 O   0  0  0  0  0  0  0  0  0  0  0  0
   -0.1839    1.7454    3.1506 H   0  0  0  0  0  0  0  0  0  0  0  0
    1.4954   -1.0327    1.0248 C   0  0  0  0  0  0  0  0  0  0  0  0
    2.3864   -1.3288    0.2364 O   0  0  0  0  0  0  0  0  0  0  0  0
    1.6682   -1.3051    2.3684 N   0  0  0  0  0  0  0  0  0  0  0  0
    0.8552   -1.1149    2.9509 H   0  0  0  0  0  0  0  0  0  0  0  0
    2.7005   -2.2000    2.8706 C   0  0  0  0  0  0  0  0  0  0  0  0
    3.6927   -1.8571    2.5595 H   0  0  0  0  0  0  0  0  0  0  0  0
    2.6742   -2.2294    3.9638 H   0  0  0  0  0  0  0  0  0  0  0  0
    2.5416   -3.2144    2.4902 H   0  0  0  0  0  0  0  0  0  0  0  0
  1  2  1  0  0  0  0
  2  3  1  0  0  0  0
  2  4  1  0  0  0  0
  2  5  1  0  0  0  0
  5  6  2  0  0  0  0
  5  7  1  0  0  0  0
  7  8  1  0  0  0  0
  7  9  1  0  0  0  0
  9 10  1  0  0  0  0
  9 11  1  0  0  0  0
  9 16  1  0  0  0  0
 11 12  1  0  0  0  0
 11 13  1  0  0  0  0
 11 14  1  0  0  0  0
 14 15  1  0  0  0  0
 16 17  2  0  0  0  0
 16 18  1  0  0  0  0
 18 19  1  0  0  0  0
 18 20  1  0  0  0  0
 20 21  1  0  0  0  0
 20 22  1  0  0  0  0
 20 23  1  0  0  0  0
M  END
$$$$

  -OEChem-01062216093D

 23 22  0     1  0  0  0  0  0999 V2000
   -3.1232   -3.5019    0.9356 H   0  0  0  0  0  0  0  0  0  0  0  0
   -2.9575   -2.4567    0.6594 C   0  0  0  0  0  0  0  0  0  0  0  0
   -3.5356   -1.8194    1.3328 H   0  0  0  0  0  0  0  0  0  0  0  0
   -3.3058   -2.3057   -0.3652 H   0  0  0  0  0  0  0  0  0  0  0  0
   -1.4822   -2.1161    0.7620 C   0  0  0  0  0  0  0  0  0  0  0  0
   -0.7082   -2.9708    1.1505 O   0  0  0  0  0  0  0  0  0  0  0  0
   -1.0709   -0.8437    0.4134 N   0  0  0  0  0  0  0  0  0  0  0  0
   -1.8243   -0.2093    0.1704 H   0  0  0  0  0  0  0  0  0  0  0  0
    0.2860   -0.2475    0.5062 C   0  0  1  0  0  0  0  0  0  0  0  0
    0.5707    0.0007   -0.5210 H   0  0  0  0  0  0  0  0  0  0  0  0
    0.1732    1.0753    1.2774 C   0  0  0  0  0  0  0  0  0  0  0  0
    1.1404    1.5890    1.2526 H   0  0  0  0  0  0  0  0  0  0  0  0
   -0.5590    1.7259    0.7884 H   0  0  0  0  0  0  0  0  0  0  0  0
   -0.2137    0.8615    2.6413 O   0  0  0  0  0  0  0  0  0  0  0  0
   -0.1655    1.6903    3.1496 H   0  0  0  0  0  0  0  0  0  0  0  0
    1.4899   -1.0568    1.0510 C   0  0  0  0  0  0  0  0  0  0  0  0
    2.5146   -1.0963    0.3785 O   0  0  0  0  0  0  0  0  0  0  0  0
    1.5110   -1.5823    2.3293 N   0  0  0  0  0  0  0  0  0  0  0  0
    0.5938   -1.6728    2.7602 H   0  0  0  0  0  0  0  0  0  0  0  0
    2.5876   -2.4346    2.8139 C   0  0  0  0  0  0  0  0  0  0  0  0
    3.5482   -1.9120    2.7573 H   0  0  0  0  0  0  0  0  0  0  0  0
    2.4080   -2.7107    3.8572 H   0  0  0  0  0  0  0  0  0  0  0  0
    2.6469   -3.3501    2.2161 H   0  0  0  0  0  0  0  0  0  0  0  0
  1  2  1  0  0  0  0
  2  3  1  0  0  0  0
  2  4  1  0  0  0  0
  2  5  1  0  0  0  0
  5  6  2  0  0  0  0
  5  7  1  0  0  0  0
  7  8  1  0  0  0  0
  7  9  1  0  0  0  0
  9 10  1  0  0  0  0
  9 11  1  0  0  0  0
  9 16  1  0  0  0  0
 11 12  1  0  0  0  0
 11 13  1  0  0  0  0
 11 14  1  0  0  0  0
 14 15  1  0  0  0  0
 16 17  2  0  0  0  0
 16 18  1  0  0  0  0
 18 19  1  0  0  0  0
 18 20  1  0  0  0  0
 20 21  1  0  0  0  0
 20 22  1  0  0  0  0
 20 23  1  0  0  0  0
M  END
$$$$

  -OEChem-01062216093D

 23 22  0     1  0  0  0  0  0999 V2000
   -3.2626   -3.4190    0.9104 H   0  0  0  0  0  0  0  0  0  0  0  0
   -3.0487   -2.3801    0.6430 C   0  0  0  0  0  0  0  0  0  0  0  0
   -3.5800   -1.7229    1.3358 H   0  0  0  0  0  0  0  0  0  0  0  0
   -3.4087   -2.1982   -0.3725 H   0  0  0  0  0  0  0  0  0  0  0  0
   -1.5567   -2.1152    0.7194 C   0  0  0  0  0  0  0  0  0  0  0  0
   -0.8190   -3.0188    1.0656 O   0  0  0  0  0  0  0  0  0  0  0  0
   -1.0918   -0.8584    0.3833 N   0  0  0  0  0  0  0  0  0  0  0  0
   -1.8269   -0.1889    0.1818 H   0  0  0  0  0  0  0  0  0  0  0  0
    0.2779   -0.2922    0.4986 C   0  0  1  0  0  0  0  0  0  0  0  0
    0.5779   -0.0461   -0.5246 H   0  0  0  0  0  0  0  0  0  0  0  0
    0.1765    1.0273    1.2759 C   0  0  0  0  0  0  0  0  0  0  0  0
    1.1522    1.5253    1.2720 H   0  0  0  0  0  0  0  0  0  0  0  0
   -0.5365    1.6953    0.7821 H   0  0  0  0  0  0  0  0  0  0  0  0
   -0.2364    0.8028    2.6296 O   0  0  0  0  0  0  0  0  0  0  0  0
   -0.1428    1.6130    3.1607 H   0  0  0  0  0  0  0  0  0  0  0  0
    1.4811   -1.0936    1.0589 C   0  0  0  0  0  0  0  0  0  0  0  0
    2.5805   -0.8955    0.5524 O   0  0  0  0  0  0  0  0  0  0  0  0
    1.4128   -1.8670    2.2018 N   0  0  0  0  0  0  0  0  0  0  0  0
    0.4734   -2.2066    2.4087 H   0  0  0  0  0  0  0  0  0  0  0  0
    2.5389   -2.6516    2.6886 C   0  0  0  0  0  0  0  0  0  0  0  0
    3.3981   -2.0049    2.8947 H   0  0  0  0  0  0  0  0  0  0  0  0
    2.2660   -3.1651    3.6154 H   0  0  0  0  0  0  0  0  0  0  0  0
    2.8308   -3.4020    1.9466 H   0  0  0  0  0  0  0  0  0  0  0  0
  1  2  1  0  0  0  0
  2  3  1  0  0  0  0
  2  4  1  0  0  0  0
  2  5  1  0  0  0  0
  5  6  2  0  0  0  0
  5  7  1  0  0  0  0
  7  8  1  0  0  0  0
  7  9  1  0  0  0  0
  9 10  1  0  0  0  0
  9 11  1  0  0  0  0
  9 16  1  0  0  0  0
 11 12  1  0  0  0  0
 11 13  1  0  0  0  0
 11 14  1  0  0  0  0
 14 15  1  0  0  0  0
 16 17  2  0  0  0  0
 16 18  1  0  0  0  0
 18 19  1  0  0  0  0
 18 20  1  0  0  0  0
 20 21  1  0  0  0  0
 20 22  1  0  0  0  0
 20 23  1  0  0  0  0
M  END
$$$$

  -OEChem-01062216093D

 23 22  0     1  0  0  0  0  0999 V2000
   -3.3669   -3.3269    0.9359 H   0  0  0  0  0  0  0  0  0  0  0  0
   -3.1145   -2.2981    0.6633 C   0  0  0  0  0  0  0  0  0  0  0  0
   -3.5690   -1.6213    1.3909 H   0  0  0  0  0  0  0  0  0  0  0  0
   -3.5242   -2.0873   -0.3275 H   0  0  0  0  0  0  0  0  0  0  0  0
   -1.6084   -2.1126    0.6531 C   0  0  0  0  0  0  0  0  0  0  0  0
   -0.9002   -3.0747    0.8844 O   0  0  0  0  0  0  0  0  0  0  0  0
   -1.1010   -0.8679    0.3351 N   0  0  0  0  0  0  0  0  0  0  0  0
   -1.8219   -0.1642    0.2140 H   0  0  0  0  0  0  0  0  0  0  0  0
    0.2776   -0.3263    0.4793 C   0  0  1  0  0  0  0  0  0  0  0  0
    0.5971   -0.0740   -0.5364 H   0  0  0  0  0  0  0  0  0  0  0  0
    0.1626    0.9850    1.2701 C   0  0  0  0  0  0  0  0  0  0  0  0
    1.1379    1.4834    1.2977 H   0  0  0  0  0  0  0  0  0  0  0  0
   -0.5373    1.6613    0.7690 H   0  0  0  0  0  0  0  0  0  0  0  0
   -0.2842    0.7380    2.6090 O   0  0  0  0  0  0  0  0  0  0  0  0
   -0.1824    1.5332    3.1609 H   0  0  0  0  0  0  0  0  0  0  0  0
    1.4817   -1.1185    1.0572 C   0  0  0  0  0  0  0  0  0  0  0  0
    2.6040   -0.7529    0.7228 O   0  0  0  0  0  0  0  0  0  0  0  0
    1.3829   -2.1151    2.0084 N   0  0  0  0  0  0  0  0  0  0  0  0
    0.4617   -2.5528    2.0625 H   0  0  0  0  0  0  0  0  0  0  0  0
    2.5286   -2.8804    2.4808 C   0  0  0  0  0  0  0  0  0  0  0  0
    3.2808   -2.2162    2.9187 H   0  0  0  0  0  0  0  0  0  0  0  0
    2.2123   -3.5936    3.2478 H   0  0  0  0  0  0  0  0  0  0  0  0
    2.9851   -3.4361    1.6553 H   0  0  0  0  0  0  0  0  0  0  0  0
  1  2  1  0  0  0  0
  2  3  1  0  0  0  0
  2  4  1  0  0  0  0
  2  5  1  0  0  0  0
  5  6  2  0  0  0  0
  5  7  1  0  0  0  0
  7  8  1  0  0  0  0
  7  9  1  0  0  0  0
  9 10  1  0  0  0  0
  9 11  1  0  0  0  0
  9 16  1  0  0  0  0
 11 12  1  0  0  0  0
 11 13  1  0  0  0  0
 11 14  1  0  0  0  0
 14 15  1  0  0  0  0
 16 17  2  0  0  0  0
 16 18  1  0  0  0  0
 18 19  1  0  0  0  0
 18 20  1  0  0  0  0
 20 21  1  0  0  0  0
 20 22  1  0  0  0  0
 20 23  1  0  0  0  0
M  END
$$$$

  -OEChem-01062216093D

 23 22  0     1  0  0  0  0  0999 V2000
   -2.8429   -3.6027    1.2493 H   0  0  0  0  0  0  0  0  0  0  0  0
   -2.7046   -2.5799    0.8880 C   0  0  0  0  0  0  0  0  0  0  0  0
   -3.0473   -1.8860    1.6596 H   0  0  0  0  0  0  0  0  0  0  0  0
   -3.3063   -2.4397   -0.0132 H   0  0  0  0  0  0  0  0  0  0  0  0
   -1.2408   -2.3273    0.5807 C   0  0  0  0  0  0  0  0  0  0  0  0
   -0.4667   -3.2643    0.5617 O   0  0  0  0  0  0  0  0  0  0  0  0
   -0.8609   -1.0990    0.0875 N   0  0  0  0  0  0  0  0  0  0  0  0
   -1.6702   -0.4916   -0.0072 H   0  0  0  0  0  0  0  0  0  0  0  0
    0.3591   -0.3269    0.4310 C   0  0  1  0  0  0  0  0  0  0  0  0
    0.9137   -0.2260   -0.5065 H   0  0  0  0  0  0  0  0  0  0  0  0
   -0.1588    1.0699    0.8181 C   0  0  0  0  0  0  0  0  0  0  0  0
    0.6721    1.7706    0.9522 H   0  0  0  0  0  0  0  0  0  0  0  0
   -0.7790    1.4631    0.0057 H   0  0  0  0  0  0  0  0  0  0  0  0
   -0.9423    1.0075    2.0159 O   0  0  0  0  0  0  0  0  0  0  0  0
   -0.3664    0.8512    2.7868 H   0  0  0  0  0  0  0  0  0  0  0  0
    1.4507   -0.7868    1.4465 C   0  0  0  0  0  0  0  0  0  0  0  0
    2.3095    0.0190    1.7740 O   0  0  0  0  0  0  0  0  0  0  0  0
    1.3668   -1.7875    2.3852 N   0  0  0  0  0  0  0  0  0  0  0  0
    1.7336   -1.4341    3.2642 H   0  0  0  0  0  0  0  0  0  0  0  0
    1.9943   -3.0596    2.0405 C   0  0  0  0  0  0  0  0  0  0  0  0
    3.0015   -3.1089    2.4662 H   0  0  0  0  0  0  0  0  0  0  0  0
    1.4049   -3.8905    2.4409 H   0  0  0  0  0  0  0  0  0  0  0  0
    2.0796   -3.1881    0.9557 H   0  0  0  0  0  0  0  0  0  0  0  0
  1  2  1  0  0  0  0
  2  3  1  0  0  0  0
  2  4  1  0  0  0  0
  2  5  1  0  0  0  0
  5  6  2  0  0  0  0
  5  7  1  0  0  0  0
  7  8  1  0  0  0  0
  7  9  1  0  0  0  0
  9 10  1  0  0  0  0
  9 11  1  0  0  0  0
  9 16  1  0  0  0  0
 11 12  1  0  0  0  0
 11 13  1  0  0  0  0
 11 14  1  0  0  0  0
 14 15  1  0  0  0  0
 16 17  2  0  0  0  0
 16 18  1  0  0  0  0
 18 19  1  0  0  0  0
 18 20  1  0  0  0  0
 20 21  1  0  0  0  0
 20 22  1  0  0  0  0
 20 23  1  0  0  0  0
M  END
$$$$

  -OEChem-01062216093D

 23 22  0     1  0  0  0  0  0999 V2000
   -2.5878   -3.8778    1.2554 H   0  0  0  0  0  0  0  0  0  0  0  0
   -2.5729   -2.7872    1.1735 C   0  0  0  0  0  0  0  0  0  0  0  0
   -2.6225   -2.3598    2.1779 H   0  0  0  0  0  0  0  0  0  0  0  0
   -3.4467   -2.4652    0.6022 H   0  0  0  0  0  0  0  0  0  0  0  0
   -1.3025   -2.3322    0.4802 C   0  0  0  0  0  0  0  0  0  0  0  0
   -0.5874   -3.1617   -0.0493 O   0  0  0  0  0  0  0  0  0  0  0  0
   -1.0983   -0.9853    0.2754 N   0  0  0  0  0  0  0  0  0  0  0  0
   -1.8622   -0.4385    0.6583 H   0  0  0  0  0  0  0  0  0  0  0  0
    0.1884   -0.2413    0.2734 C   0  0  1  0  0  0  0  0  0  0  0  0
    0.2629    0.1917   -0.7285 H   0  0  0  0  0  0  0  0  0  0  0  0
    0.0056    0.9086    1.2748 C   0  0  0  0  0  0  0  0  0  0  0  0
    0.8715    1.5785    1.2364 H   0  0  0  0  0  0  0  0  0  0  0  0
   -0.8750    1.5002    1.0039 H   0  0  0  0  0  0  0  0  0  0  0  0
   -0.1490    0.3991    2.6064 O   0  0  0  0  0  0  0  0  0  0  0  0
   -0.1143    1.1232    3.2570 H   0  0  0  0  0  0  0  0  0  0  0  0
    1.6085   -0.8362    0.5166 C   0  0  0  0  0  0  0  0  0  0  0  0
    2.5639   -0.1558    0.1686 O   0  0  0  0  0  0  0  0  0  0  0  0
    2.0062   -2.1242    0.7858 N   0  0  0  0  0  0  0  0  0  0  0  0
    2.9935   -2.2457    0.5807 H   0  0  0  0  0  0  0  0  0  0  0  0
    1.5336   -2.8076    1.9832 C   0  0  0  0  0  0  0  0  0  0  0  0
    2.3216   -2.8159    2.7423 H   0  0  0  0  0  0  0  0  0  0  0  0
    0.6582   -2.3107    2.4123 H   0  0  0  0  0  0  0  0  0  0  0  0
    1.2667   -3.8425    1.7471 H   0  0  0  0  0  0  0  0  0  0  0  0
  1  2  1  0  0  0  0
  2  3  1  0  0  0  0
  2  4  1  0  0  0  0
  2  5  1  0  0  0  0
  5  6  2  0  0  0  0
  5  7  1  0  0  0  0
  7  8  1  0  0  0  0
  7  9  1  0  0  0  0
  9 10  1  0  0  0  0
  9 11  1  0  0  0  0
  9 16  1  0  0  0  0
 11 12  1  0  0  0  0
 11 13  1  0  0  0  0
 11 14  1  0  0  0  0
 14 15  1  0  0  0  0
 16 17  2  0  0  0  0
 16 18  1  0  0  0  0
 18 19  1  0  0  0  0
 18 20  1  0  0  0  0
 20 21  1  0  0  0  0
 20 22  1  0  0  0  0
 20 23  1  0  0  0  0
M  END
$$$$

  -OEChem-01062216093D

 23 22  0     1  0  0  0  0  0999 V2000
   -2.6051   -3.7623    1.4605 H   0  0  0  0  0  0  0  0  0  0  0  0
   -2.5891   -2.6731    1.3632 C   0  0  0  0  0  0  0  0  0  0  0  0
   -2.5232   -2.2335    2.3615 H   0  0  0  0  0  0  0  0  0  0  0  0
   -3.5170   -2.3474    0.8870 H   0  0  0  0  0  0  0  0  0  0  0  0
   -1.3980   -2.2423    0.5287 C   0  0  0  0  0  0  0  0  0  0  0  0
   -0.8044   -3.0759   -0.1282 O   0  0  0  0  0  0  0  0  0  0  0  0
   -1.1559   -0.8984    0.3513 N   0  0  0  0  0  0  0  0  0  0  0  0
   -1.8531   -0.3427    0.8358 H   0  0  0  0  0  0  0  0  0  0  0  0
    0.1569   -0.2054    0.2799 C   0  0  1  0  0  0  0  0  0  0  0  0
    0.1801    0.2604   -0.7096 H   0  0  0  0  0  0  0  0  0  0  0  0
    0.0742    0.9121    1.3324 C   0  0  0  0  0  0  0  0  0  0  0  0
    0.9545    1.5605    1.2663 H   0  0  0  0  0  0  0  0  0  0  0  0
   -0.8029    1.5389    1.1407 H   0  0  0  0  0  0  0  0  0  0  0  0
   -0.0130    0.3530    2.6502 O   0  0  0  0  0  0  0  0  0  0  0  0
    0.1049    1.0461    3.3245 H   0  0  0  0  0  0  0  0  0  0  0  0
    1.5680   -0.8599    0.4009 C   0  0  0  0  0  0  0  0  0  0  0  0
    2.5340   -0.1436    0.1742 O   0  0  0  0  0  0  0  0  0  0  0  0
    1.9433   -2.1788    0.3260 N   0  0  0  0  0  0  0  0  0  0  0  0
    2.8961   -2.2469   -0.0197 H   0  0  0  0  0  0  0  0  0  0  0  0
    1.6589   -3.0579    1.4534 C   0  0  0  0  0  0  0  0  0  0  0  0
    0.8565   -2.6594    2.0824 H   0  0  0  0  0  0  0  0  0  0  0  0
    1.3609   -4.0481    1.0942 H   0  0  0  0  0  0  0  0  0  0  0  0
    2.5525   -3.1675    2.0754 H   0  0  0  0  0  0  0  0  0  0  0  0
  1  2  1  0  0  0  0
  2  3  1  0  0  0  0
  2  4  1  0  0  0  0
  2  5  1  0  0  0  0
  5  6  2  0  0  0  0
  5  7  1  0  0  0  0
  7  8  1  0  0  0  0
  7  9  1  0  0  0  0
  9 10  1  0  0  0  0
  9 11  1  0  0  0  0
  9 16  1  0  0  0  0
 11 12  1  0  0  0  0
 11 13  1  0  0  0  0
 11 14  1  0  0  0  0
 14 15  1  0  0  0  0
 16 17  2  0  0  0  0
 16 18  1  0  0  0  0
 18 19  1  0  0  0  0
 18 20  1  0  0  0  0
 20 21  1  0  0  0  0
 20 22  1  0  0  0  0
 20 23  1  0  0  0  0
M  END
$$$$

  -OEChem-01062216093D

 23 22  0     1  0  0  0  0  0999 V2000
   -3.3962   -3.2766    1.0131 H   0  0  0  0  0  0  0  0  0  0  0  0
   -3.1325   -2.2362    0.8015 C   0  0  0  0  0  0  0  0  0  0  0  0
   -3.4310   -1.6198    1.6532 H   0  0  0  0  0  0  0  0  0  0  0  0
   -3.6777   -1.9091   -0.0870 H   0  0  0  0  0  0  0  0  0  0  0  0
   -1.6380   -2.1102    0.5703 C   0  0  0  0  0  0  0  0  0  0  0  0
   -0.9693   -3.1259    0.5441 O   0  0  0  0  0  0  0  0  0  0  0  0
   -1.1222   -0.8559    0.3062 N   0  0  0  0  0  0  0  0  0  0  0  0
   -1.8321   -0.1354    0.3922 H   0  0  0  0  0  0  0  0  0  0  0  0
    0.2662   -0.3278    0.4219 C   0  0  1  0  0  0  0  0  0  0  0  0
    0.5501   -0.0288   -0.5908 H   0  0  0  0  0  0  0  0  0  0  0  0
    0.1250    0.9570    1.2615 C   0  0  0  0  0  0  0  0  0  0  0  0
    1.0768    1.4974    1.2938 H   0  0  0  0  0  0  0  0  0  0  0  0
   -0.6046    1.6275    0.7956 H   0  0  0  0  0  0  0  0  0  0  0  0
   -0.3000    0.6442    2.5940 O   0  0  0  0  0  0  0  0  0  0  0  0
   -0.0804    1.3703    3.2040 H   0  0  0  0  0  0  0  0  0  0  0  0
    1.5046   -1.1487    0.9023 C   0  0  0  0  0  0  0  0  0  0  0  0
    2.4917   -0.5474    1.3156 O   0  0  0  0  0  0  0  0  0  0  0  0
    1.6543   -2.5095    0.7244 N   0  0  0  0  0  0  0  0  0  0  0  0
    0.8024   -3.0202    0.4846 H   0  0  0  0  0  0  0  0  0  0  0  0
    2.8073   -3.2714    1.1866 C   0  0  0  0  0  0  0  0  0  0  0  0
    2.9152   -3.1823    2.2725 H   0  0  0  0  0  0  0  0  0  0  0  0
    2.6817   -4.3291    0.9360 H   0  0  0  0  0  0  0  0  0  0  0  0
    3.7239   -2.9107    0.7085 H   0  0  0  0  0  0  0  0  0  0  0  0
  1  2  1  0  0  0  0
  2  3  1  0  0  0  0
  2  4  1  0  0  0  0
  2  5  1  0  0  0  0
  5  6  2  0  0  0  0
  5  7  1  0  0  0  0
  7  8  1  0  0  0  0
  7  9  1  0  0  0  0
  9 10  1  0  0  0  0
  9 11  1  0  0  0  0
  9 16  1  0  0  0  0
 11 12  1  0  0  0  0
 11 13  1  0  0  0  0
 11 14  1  0  0  0  0
 14 15  1  0  0  0  0
 16 17  2  0  0  0  0
 16 18  1  0  0  0  0
 18 19  1  0  0  0  0
 18 20  1  0  0  0  0
 20 21  1  0  0  0  0
 20 22  1  0  0  0  0
 20 23  1  0  0  0  0
M  END
$$$$

  -OEChem-01062216093D

 23 22  0     1  0  0  0  0  0999 V2000
   -3.2511   -3.3390    1.1068 H   0  0  0  0  0  0  0  0  0  0  0  0
   -3.0498   -2.2925    0.8609 C   0  0  0  0  0  0  0  0  0  0  0  0
   -3.3746   -1.6682    1.6971 H   0  0  0  0  0  0  0  0  0  0  0  0
   -3.6225   -2.0244   -0.0302 H   0  0  0  0  0  0  0  0  0  0  0  0
   -1.5677   -2.0886    0.6074 C   0  0  0  0  0  0  0  0  0  0  0  0
   -0.8368   -3.0611    0.5987 O   0  0  0  0  0  0  0  0  0  0  0  0
   -1.1201   -0.8166    0.3055 N   0  0  0  0  0  0  0  0  0  0  0  0
   -1.8586   -0.1240    0.3950 H   0  0  0  0  0  0  0  0  0  0  0  0
    0.2474   -0.2345    0.3800 C   0  0  1  0  0  0  0  0  0  0  0  0
    0.5074    0.0503   -0.6433 H   0  0  0  0  0  0  0  0  0  0  0  0
    0.1031    1.0667    1.1908 C   0  0  0  0  0  0  0  0  0  0  0  0
    1.0377    1.6380    1.1748 H   0  0  0  0  0  0  0  0  0  0  0  0
   -0.6664    1.6974    0.7338 H   0  0  0  0  0  0  0  0  0  0  0  0
   -0.2700    0.7769    2.5409 O   0  0  0  0  0  0  0  0  0  0  0  0
    0.4786    0.3364    2.9907 H   0  0  0  0  0  0  0  0  0  0  0  0
    1.4888   -1.0500    0.8555 C   0  0  0  0  0  0  0  0  0  0  0  0
    2.3008   -0.5323    1.6167 O   0  0  0  0  0  0  0  0  0  0  0  0
    1.7562   -2.3338    0.4234 N   0  0  0  0  0  0  0  0  0  0  0  0
    0.9358   -2.8352    0.0742 H   0  0  0  0  0  0  0  0  0  0  0  0
    2.8539   -3.1362    0.9488 C   0  0  0  0  0  0  0  0  0  0  0  0
    2.7223   -3.3101    2.0218 H   0  0  0  0  0  0  0  0  0  0  0  0
    2.8864   -4.1049    0.4412 H   0  0  0  0  0  0  0  0  0  0  0  0
    3.8123   -2.6319    0.7871 H   0  0  0  0  0  0  0  0  0  0  0  0
  1  2  1  0  0  0  0
  2  3  1  0  0  0  0
  2  4  1  0  0  0  0
  2  5  1  0  0  0  0
  5  6  2  0  0  0  0
  5  7  1  0  0  0  0
  7  8  1  0  0  0  0
  7  9  1  0  0  0  0
  9 10  1  0  0  0  0
  9 11  1  0  0  0  0
  9 16  1  0  0  0  0
 11 12  1  0  0  0  0
 11 13  1  0  0  0  0
 11 14  1  0  0  0  0
 14 15  1  0  0  0  0
 16 17  2  0  0  0  0
 16 18  1  0  0  0  0
 18 19  1  0  0  0  0
 18 20  1  0  0  0  0
 20 21  1  0  0  0  0
 20 22  1  0  0  0  0
 20 23  1  0  0  0  0
M  END
$$$$

  -OEChem-01062216093D

 23 22  0     1  0  0  0  0  0999 V2000
   -3.0772   -3.3985    1.1616 H   0  0  0  0  0  0  0  0  0  0  0  0
   -2.9362   -2.3436    0.9093 C   0  0  0  0  0  0  0  0  0  0  0  0
   -3.2383   -1.7357    1.7658 H   0  0  0  0  0  0  0  0  0  0  0  0
   -3.5702   -2.0980    0.0539 H   0  0  0  0  0  0  0  0  0  0  0  0
   -1.4815   -2.0759    0.5723 C   0  0  0  0  0  0  0  0  0  0  0  0
   -0.7118   -3.0153    0.4848 O   0  0  0  0  0  0  0  0  0  0  0  0
   -1.0937   -0.7864    0.2647 N   0  0  0  0  0  0  0  0  0  0  0  0
   -1.8454   -0.1167    0.4051 H   0  0  0  0  0  0  0  0  0  0  0  0
    0.2620   -0.1875    0.3640 C   0  0  1  0  0  0  0  0  0  0  0  0
    0.5443    0.1058   -0.6509 H   0  0  0  0  0  0  0  0  0  0  0  0
    0.1028    1.1046    1.1839 C   0  0  0  0  0  0  0  0  0  0  0  0
    1.0408    1.6703    1.1864 H   0  0  0  0  0  0  0  0  0  0  0  0
   -0.6604    1.7412    0.7246 H   0  0  0  0  0  0  0  0  0  0  0  0
   -0.2814    0.7973    2.5269 O   0  0  0  0  0  0  0  0  0  0  0  0
    0.4534    0.3143    2.9598 H   0  0  0  0  0  0  0  0  0  0  0  0
    1.4735   -1.0249    0.8688 C   0  0  0  0  0  0  0  0  0  0  0  0
    2.1434   -0.6321    1.8204 O   0  0  0  0  0  0  0  0  0  0  0  0
    1.8794   -2.1695    0.2102 N   0  0  0  0  0  0  0  0  0  0  0  0
    1.1148   -2.6433   -0.2750 H   0  0  0  0  0  0  0  0  0  0  0  0
    2.9585   -3.0117    0.7107 C   0  0  0  0  0  0  0  0  0  0  0  0
    2.7065   -3.4095    1.6992 H   0  0  0  0  0  0  0  0  0  0  0  0
    3.1253   -3.8521    0.0301 H   0  0  0  0  0  0  0  0  0  0  0  0
    3.8900   -2.4410    0.7861 H   0  0  0  0  0  0  0  0  0  0  0  0
  1  2  1  0  0  0  0
  2  3  1  0  0  0  0
  2  4  1  0  0  0  0
  2  5  1  0  0  0  0
  5  6  2  0  0  0  0
  5  7  1  0  0  0  0
  7  8  1  0  0  0  0
  7  9  1  0  0  0  0
  9 10  1  0  0  0  0
  9 11  1  0  0  0  0
  9 16  1  0  0  0  0
 11 12  1  0  0  0  0
 11 13  1  0  0  0  0
 11 14  1  0  0  0  0
 14 15  1  0  0  0  0
 16 17  2  0  0  0  0
 16 18  1  0  0  0  0
 18 19  1  0  0  0  0
 18 20  1  0  0  0  0
 20 21  1  0  0  0  0
 20 22  1  0  0  0  0
 20 23  1  0  0  0  0
M  END
$$$$

  -OEChem-01062216093D

 23 22  0     1  0  0  0  0  0999 V2000
   -2.9420   -3.4380    1.1940 H   0  0  0  0  0  0  0  0  0  0  0  0
   -2.8462   -2.3784    0.9405 C   0  0  0  0  0  0  0  0  0  0  0  0
   -3.1342   -1.7830    1.8107 H   0  0  0  0  0  0  0  0  0  0  0  0
   -3.5208   -2.1514    0.1114 H   0  0  0  0  0  0  0  0  0  0  0  0
   -1.4155   -2.0619    0.5486 C   0  0  0  0  0  0  0  0  0  0  0  0
   -0.6162   -2.9717    0.4120 O   0  0  0  0  0  0  0  0  0  0  0  0
   -1.0759   -0.7608    0.2338 N   0  0  0  0  0  0  0  0  0  0  0  0
   -1.8368   -0.1104    0.4110 H   0  0  0  0  0  0  0  0  0  0  0  0
    0.2707   -0.1525    0.3559 C   0  0  1  0  0  0  0  0  0  0  0  0
    0.5747    0.1491   -0.6503 H   0  0  0  0  0  0  0  0  0  0  0  0
    0.0990    1.1322    1.1834 C   0  0  0  0  0  0  0  0  0  0  0  0
    1.0407    1.6915    1.2033 H   0  0  0  0  0  0  0  0  0  0  0  0
   -0.6564    1.7751    0.7204 H   0  0  0  0  0  0  0  0  0  0  0  0
   -0.2987    0.8139    2.5197 O   0  0  0  0  0  0  0  0  0  0  0  0
    0.4101    0.2738    2.9324 H   0  0  0  0  0  0  0  0  0  0  0  0
    1.4523   -1.0111    0.8877 C   0  0  0  0  0  0  0  0  0  0  0  0
    1.9612   -0.7663    1.9791 O   0  0  0  0  0  0  0  0  0  0  0  0
    2.0360   -1.9663    0.0768 N   0  0  0  0  0  0  0  0  0  0  0  0
    1.3902   -2.3702   -0.6004 H   0  0  0  0  0  0  0  0  0  0  0  0
    3.1114   -2.8274    0.5536 C   0  0  0  0  0  0  0  0  0  0  0  0
    2.7668   -3.4411    1.3926 H   0  0  0  0  0  0  0  0  0  0  0  0
    3.4453   -3.4915   -0.2493 H   0  0  0  0  0  0  0  0  0  0  0  0
    3.9680   -2.2290    0.8817 H   0  0  0  0  0  0  0  0  0  0  0  0
  1  2  1  0  0  0  0
  2  3  1  0  0  0  0
  2  4  1  0  0  0  0
  2  5  1  0  0  0  0
  5  6  2  0  0  0  0
  5  7  1  0  0  0  0
  7  8  1  0  0  0  0
  7  9  1  0  0  0  0
  9 10  1  0  0  0  0
  9 11  1  0  0  0  0
  9 16  1  0  0  0  0
 11 12  1  0  0  0  0
 11 13  1  0  0  0  0
 11 14  1  0  0  0  0
 14 15  1  0  0  0  0
 16 17  2  0  0  0  0
 16 18  1  0  0  0  0
 18 19  1  0  0  0  0
 18 20  1  0  0  0  0
 20 21  1  0  0  0  0
 20 22  1  0  0  0  0
 20 23  1  0  0  0  0
M  END
$$$$

  -OEChem-01062216093D

 23 22  0     1  0  0  0  0  0999 V2000
   -2.8526   -3.4728    1.2108 H   0  0  0  0  0  0  0  0  0  0  0  0
   -2.7852   -2.4089    0.9661 C   0  0  0  0  0  0  0  0  0  0  0  0
   -3.0717   -1.8282    1.8465 H   0  0  0  0  0  0  0  0  0  0  0  0
   -3.4785   -2.1897    0.1507 H   0  0  0  0  0  0  0  0  0  0  0  0
   -1.3690   -2.0567    0.5527 C   0  0  0  0  0  0  0  0  0  0  0  0
   -0.5485   -2.9457    0.4007 O   0  0  0  0  0  0  0  0  0  0  0  0
   -1.0654   -0.7491    0.2256 N   0  0  0  0  0  0  0  0  0  0  0  0
   -1.8346   -0.1136    0.4205 H   0  0  0  0  0  0  0  0  0  0  0  0
    0.2734   -0.1278    0.3502 C   0  0  1  0  0  0  0  0  0  0  0  0
    0.5789    0.1773   -0.6544 H   0  0  0  0  0  0  0  0  0  0  0  0
    0.0955    1.1548    1.1785 C   0  0  0  0  0  0  0  0  0  0  0  0
    1.0381    1.7123    1.2005 H   0  0  0  0  0  0  0  0  0  0  0  0
   -0.6595    1.7985    0.7158 H   0  0  0  0  0  0  0  0  0  0  0  0
   -0.2996    0.8346    2.5150 O   0  0  0  0  0  0  0  0  0  0  0  0
    0.3751    0.2314    2.9010 H   0  0  0  0  0  0  0  0  0  0  0  0
    1.4460   -0.9887    0.8935 C   0  0  0  0  0  0  0  0  0  0  0  0
    1.7818   -0.9144    2.0738 O   0  0  0  0  0  0  0  0  0  0  0  0
    2.2276   -1.7165    0.0150 N   0  0  0  0  0  0  0  0  0  0  0  0
    1.7661   -1.9618   -0.8571 H   0  0  0  0  0  0  0  0  0  0  0  0
    3.2817   -2.6076    0.4834 C   0  0  0  0  0  0  0  0  0  0  0  0
    2.8617   -3.3946    1.1188 H   0  0  0  0  0  0  0  0  0  0  0  0
    3.7830   -3.0783   -0.3677 H   0  0  0  0  0  0  0  0  0  0  0  0
    4.0299   -2.0517    1.0580 H   0  0  0  0  0  0  0  0  0  0  0  0
  1  2  1  0  0  0  0
  2  3  1  0  0  0  0
  2  4  1  0  0  0  0
  2  5  1  0  0  0  0
  5  6  2  0  0  0  0
  5  7  1  0  0  0  0
  7  8  1  0  0  0  0
  7  9  1  0  0  0  0
  9 10  1  0  0  0  0
  9 11  1  0  0  0  0
  9 16  1  0  0  0  0
 11 12  1  0  0  0  0
 11 13  1  0  0  0  0
 11 14  1  0  0  0  0
 14 15  1  0  0  0  0
 16 17  2  0  0  0  0
 16 18  1  0  0  0  0
 18 19  1  0  0  0  0
 18 20  1  0  0  0  0
 20 21  1  0  0  0  0
 20 22  1  0  0  0  0
 20 23  1  0  0  0  0
M  END
$$$$

  -OEChem-01062216093D

 23 22  0     1  0  0  0  0  0999 V2000
   -2.8249   -3.4768    1.2332 H   0  0  0  0  0  0  0  0  0  0  0  0
   -2.7661   -2.4110    0.9949 C   0  0  0  0  0  0  0  0  0  0  0  0
   -3.0236   -1.8377    1.8889 H   0  0  0  0  0  0  0  0  0  0  0  0
   -3.4856   -2.1862    0.2040 H   0  0  0  0  0  0  0  0  0  0  0  0
   -1.3639   -2.0547    0.5393 C   0  0  0  0  0  0  0  0  0  0  0  0
   -0.5475   -2.9411    0.3521 O   0  0  0  0  0  0  0  0  0  0  0  0
   -1.0698   -0.7466    0.2050 N   0  0  0  0  0  0  0  0  0  0  0  0
   -1.8360   -0.1135    0.4184 H   0  0  0  0  0  0  0  0  0  0  0  0
    0.2699   -0.1308    0.3378 C   0  0  1  0  0  0  0  0  0  0  0  0
    0.5808    0.1737   -0.6652 H   0  0  0  0  0  0  0  0  0  0  0  0
    0.0976    1.1499    1.1695 C   0  0  0  0  0  0  0  0  0  0  0  0
    1.0452    1.6983    1.1978 H   0  0  0  0  0  0  0  0  0  0  0  0
   -0.6498    1.8025    0.7067 H   0  0  0  0  0  0  0  0  0  0  0  0
   -0.3039    0.8279    2.5037 O   0  0  0  0  0  0  0  0  0  0  0  0
    0.3295    0.1682    2.8695 H   0  0  0  0  0  0  0  0  0  0  0  0
    1.4335   -0.9946    0.8938 C   0  0  0  0  0  0  0  0  0  0  0  0
    1.6131   -1.0812    2.1070 O   0  0  0  0  0  0  0  0  0  0  0  0
    2.4054   -1.4792    0.0370 N   0  0  0  0  0  0  0  0  0  0  0  0
    2.1288   -1.5640   -0.9368 H   0  0  0  0  0  0  0  0  0  0  0  0
    3.4956   -2.3261    0.5060 C   0  0  0  0  0  0  0  0  0  0  0  0
    3.1006   -3.2485    0.9451 H   0  0  0  0  0  0  0  0  0  0  0  0
    4.1529   -2.5912   -0.3276 H   0  0  0  0  0  0  0  0  0  0  0  0
    4.0929   -1.8035    1.2606 H   0  0  0  0  0  0  0  0  0  0  0  0
  1  2  1  0  0  0  0
  2  3  1  0  0  0  0
  2  4  1  0  0  0  0
  2  5  1  0  0  0  0
  5  6  2  0  0  0  0
  5  7  1  0  0  0  0
  7  8  1  0  0  0  0
  7  9  1  0  0  0  0
  9 10  1  0  0  0  0
  9 11  1  0  0  0  0
  9 16  1  0  0  0  0
 11 12  1  0  0  0  0
 11 13  1  0  0  0  0
 11 14  1  0  0  0  0
 14 15  1  0  0  0  0
 16 17  2  0  0  0  0
 16 18  1  0  0  0  0
 18 19  1  0  0  0  0
 18 20  1  0  0  0  0
 20 21  1  0  0  0  0
 20 22  1  0  0  0  0
 20 23  1  0  0  0  0
M  END
$$$$

  -OEChem-01062216093D

 23 22  0     1  0  0  0  0  0999 V2000
   -2.6731   -3.5695    1.1668 H   0  0  0  0  0  0  0  0  0  0  0  0
   -2.6489   -2.4866    1.0162 C   0  0  0  0  0  0  0  0  0  0  0  0
   -2.7669   -1.9964    1.9859 H   0  0  0  0  0  0  0  0  0  0  0  0
   -3.4775   -2.2004    0.3643 H   0  0  0  0  0  0  0  0  0  0  0  0
   -1.3288   -2.0789    0.3911 C   0  0  0  0  0  0  0  0  0  0  0  0
   -0.5785   -2.9303   -0.0586 O   0  0  0  0  0  0  0  0  0  0  0  0
   -1.0607   -0.7449    0.1573 N   0  0  0  0  0  0  0  0  0  0  0  0
   -1.8011   -0.1547    0.5248 H   0  0  0  0  0  0  0  0  0  0  0  0
    0.2840   -0.1739    0.3817 C   0  0  1  0  0  0  0  0  0  0  0  0
    0.6269    0.1541   -0.6027 H   0  0  0  0  0  0  0  0  0  0  0  0
    0.1235    1.1017    1.2231 C   0  0  0  0  0  0  0  0  0  0  0  0
    1.0977    1.5952    1.3039 H   0  0  0  0  0  0  0  0  0  0  0  0
   -0.5591    1.7963    0.7226 H   0  0  0  0  0  0  0  0  0  0  0  0
   -0.3645    0.8151    2.5372 O   0  0  0  0  0  0  0  0  0  0  0  0
   -0.1827    1.5479    3.1507 H   0  0  0  0  0  0  0  0  0  0  0  0
    1.4221   -1.0939    0.9015 C   0  0  0  0  0  0  0  0  0  0  0  0
    1.4191   -1.5357    2.0448 O   0  0  0  0  0  0  0  0  0  0  0  0
    2.5643   -1.2637    0.1365 N   0  0  0  0  0  0  0  0  0  0  0  0
    2.4793   -1.0393   -0.8497 H   0  0  0  0  0  0  0  0  0  0  0  0
    3.6429   -2.1576    0.5414 C   0  0  0  0  0  0  0  0  0  0  0  0
    3.2732   -3.1844    0.6334 H   0  0  0  0  0  0  0  0  0  0  0  0
    4.4457   -2.1423   -0.2019 H   0  0  0  0  0  0  0  0  0  0  0  0
    4.0607   -1.8459    1.5045 H   0  0  0  0  0  0  0  0  0  0  0  0
  1  2  1  0  0  0  0
  2  3  1  0  0  0  0
  2  4  1  0  0  0  0
  2  5  1  0  0  0  0
  5  6  2  0  0  0  0
  5  7  1  0  0  0  0
  7  8  1  0  0  0  0
  7  9  1  0  0  0  0
  9 10  1  0  0  0  0
  9 11  1  0  0  0  0
  9 16  1  0  0  0  0
 11 12  1  0  0  0  0
 11 13  1  0  0  0  0
 11 14  1  0  0  0  0
 14 15  1  0  0  0  0
 16 17  2  0  0  0  0
 16 18  1  0  0  0  0
 18 19  1  0  0  0  0
 18 20  1  0  0  0  0
 20 21  1  0  0  0  0
 20 22  1  0  0  0  0
 20 23  1  0  0  0  0
M  END
$$$$

  -OEChem-01062216093D

 23 22  0     1  0  0  0  0  0999 V2000
   -2.6764   -3.5675    1.1558 H   0  0  0  0  0  0  0  0  0  0  0  0
   -2.6310   -2.4804    1.0476 C   0  0  0  0  0  0  0  0  0  0  0  0
   -2.6801   -2.0275    2.0410 H   0  0  0  0  0  0  0  0  0  0  0  0
   -3.4863   -2.1466    0.4560 H   0  0  0  0  0  0  0  0  0  0  0  0
   -1.3372   -2.0804    0.3656 C   0  0  0  0  0  0  0  0  0  0  0  0
   -0.6264   -2.9304   -0.1471 O   0  0  0  0  0  0  0  0  0  0  0  0
   -1.0648   -0.7484    0.1285 N   0  0  0  0  0  0  0  0  0  0  0  0
   -1.7970   -0.1591    0.5128 H   0  0  0  0  0  0  0  0  0  0  0  0
    0.2830   -0.1860    0.3576 C   0  0  1  0  0  0  0  0  0  0  0  0
    0.6287    0.1383   -0.6272 H   0  0  0  0  0  0  0  0  0  0  0  0
    0.1322    1.0834    1.2088 C   0  0  0  0  0  0  0  0  0  0  0  0
    1.1078    1.5737    1.2929 H   0  0  0  0  0  0  0  0  0  0  0  0
   -0.5496    1.7839    0.7155 H   0  0  0  0  0  0  0  0  0  0  0  0
   -0.3554    0.7834    2.5198 O   0  0  0  0  0  0  0  0  0  0  0  0
   -0.2234    1.5310    3.1282 H   0  0  0  0  0  0  0  0  0  0  0  0
    1.4185   -1.1045    0.8850 C   0  0  0  0  0  0  0  0  0  0  0  0
    1.3070   -1.7213    1.9386 O   0  0  0  0  0  0  0  0  0  0  0  0
    2.6727   -1.0415    0.2993 N   0  0  0  0  0  0  0  0  0  0  0  0
    2.7282   -0.6141   -0.6193 H   0  0  0  0  0  0  0  0  0  0  0  0
    3.7845   -1.8760    0.7405 C   0  0  0  0  0  0  0  0  0  0  0  0
    3.5347   -2.9364    0.6276 H   0  0  0  0  0  0  0  0  0  0  0  0
    4.6767   -1.6639    0.1439 H   0  0  0  0  0  0  0  0  0  0  0  0
    4.0192   -1.6792    1.7920 H   0  0  0  0  0  0  0  0  0  0  0  0
  1  2  1  0  0  0  0
  2  3  1  0  0  0  0
  2  4  1  0  0  0  0
  2  5  1  0  0  0  0
  5  6  2  0  0  0  0
  5  7  1  0  0  0  0
  7  8  1  0  0  0  0
  7  9  1  0  0  0  0
  9 10  1  0  0  0  0
  9 11  1  0  0  0  0
  9 16  1  0  0  0  0
 11 12  1  0  0  0  0
 11 13  1  0  0  0  0
 11 14  1  0  0  0  0
 14 15  1  0  0  0  0
 16 17  2  0  0  0  0
 16 18  1  0  0  0  0
 18 19  1  0  0  0  0
 18 20  1  0  0  0  0
 20 21  1  0  0  0  0
 20 22  1  0  0  0  0
 20 23  1  0  0  0  0
M  END
$$$$

  -OEChem-01062216093D

 23 22  0     1  0  0  0  0  0999 V2000
   -2.6661   -3.5514    1.1925 H   0  0  0  0  0  0  0  0  0  0  0  0
   -2.6192   -2.4651    1.0763 C   0  0  0  0  0  0  0  0  0  0  0  0
   -2.6174   -2.0067    2.0685 H   0  0  0  0  0  0  0  0  0  0  0  0
   -3.4993   -2.1283    0.5240 H   0  0  0  0  0  0  0  0  0  0  0  0
   -1.3563   -2.0786    0.3318 C   0  0  0  0  0  0  0  0  0  0  0  0
   -0.7011   -2.9291   -0.2493 O   0  0  0  0  0  0  0  0  0  0  0  0
   -1.0669   -0.7503    0.0975 N   0  0  0  0  0  0  0  0  0  0  0  0
   -1.7859   -0.1577    0.5004 H   0  0  0  0  0  0  0  0  0  0  0  0
    0.2882   -0.2059    0.3312 C   0  0  1  0  0  0  0  0  0  0  0  0
    0.6393    0.1184   -0.6517 H   0  0  0  0  0  0  0  0  0  0  0  0
    0.1483    1.0542    1.1972 C   0  0  0  0  0  0  0  0  0  0  0  0
    1.1263    1.5387    1.2878 H   0  0  0  0  0  0  0  0  0  0  0  0
   -0.5302    1.7644    0.7133 H   0  0  0  0  0  0  0  0  0  0  0  0
   -0.3419    0.7378    2.5034 O   0  0  0  0  0  0  0  0  0  0  0  0
   -0.2441    1.4909    3.1118 H   0  0  0  0  0  0  0  0  0  0  0  0
    1.4220   -1.1258    0.8612 C   0  0  0  0  0  0  0  0  0  0  0  0
    1.2465   -1.8947    1.7997 O   0  0  0  0  0  0  0  0  0  0  0  0
    2.7318   -0.8522    0.4993 N   0  0  0  0  0  0  0  0  0  0  0  0
    2.8757   -0.2461   -0.3015 H   0  0  0  0  0  0  0  0  0  0  0  0
    3.8683   -1.6093    1.0118 C   0  0  0  0  0  0  0  0  0  0  0  0
    3.7680   -2.6696    0.7564 H   0  0  0  0  0  0  0  0  0  0  0  0
    4.7995   -1.2340    0.5771 H   0  0  0  0  0  0  0  0  0  0  0  0
    3.9341   -1.5137    2.1007 H   0  0  0  0  0  0  0  0  0  0  0  0
  1  2  1  0  0  0  0
  2  3  1  0  0  0  0
  2  4  1  0  0  0  0
  2  5  1  0  0  0  0
  5  6  2  0  0  0  0
  5  7  1  0  0  0  0
  7  8  1  0  0  0  0
  7  9  1  0  0  0  0
  9 10  1  0  0  0  0
  9 11  1  0  0  0  0
  9 16  1  0  0  0  0
 11 12  1  0  0  0  0
 11 13  1  0  0  0  0
 11 14  1  0  0  0  0
 14 15  1  0  0  0  0
 16 17  2  0  0  0  0
 16 18  1  0  0  0  0
 18 19  1  0  0  0  0
 18 20  1  0  0  0  0
 20 21  1  0  0  0  0
 20 22  1  0  0  0  0
 20 23  1  0  0  0  0
M  END
$$$$

  -OEChem-01062216093D

 23 22  0     1  0  0  0  0  0999 V2000
   -2.6782   -3.5317    1.2090 H   0  0  0  0  0  0  0  0  0  0  0  0
   -2.5987   -2.4453    1.1145 C   0  0  0  0  0  0  0  0  0  0  0  0
   -2.5220   -2.0122    2.1149 H   0  0  0  0  0  0  0  0  0  0  0  0
   -3.4970   -2.0640    0.6240 H   0  0  0  0  0  0  0  0  0  0  0  0
   -1.3685   -2.0843    0.3047 C   0  0  0  0  0  0  0  0  0  0  0  0
   -0.7834   -2.9391   -0.3407 O   0  0  0  0  0  0  0  0  0  0  0  0
   -1.0568   -0.7624    0.0668 N   0  0  0  0  0  0  0  0  0  0  0  0
   -1.7640   -0.1635    0.4806 H   0  0  0  0  0  0  0  0  0  0  0  0
    0.3039   -0.2294    0.3022 C   0  0  1  0  0  0  0  0  0  0  0  0
    0.6599    0.0951   -0.6791 H   0  0  0  0  0  0  0  0  0  0  0  0
    0.1528    1.0254    1.1752 C   0  0  0  0  0  0  0  0  0  0  0  0
    1.1242    1.5203    1.2765 H   0  0  0  0  0  0  0  0  0  0  0  0
   -0.5292    1.7331    0.6923 H   0  0  0  0  0  0  0  0  0  0  0  0
   -0.3450    0.6920    2.4744 O   0  0  0  0  0  0  0  0  0  0  0  0
   -0.2932    1.4518    3.0804 H   0  0  0  0  0  0  0  0  0  0  0  0
    1.4452   -1.1376    0.8420 C   0  0  0  0  0  0  0  0  0  0  0  0
    1.2425   -2.0592    1.6234 O   0  0  0  0  0  0  0  0  0  0  0  0
    2.7530   -0.6869    0.7414 N   0  0  0  0  0  0  0  0  0  0  0  0
    2.9365    0.0803    0.1036 H   0  0  0  0  0  0  0  0  0  0  0  0
    3.8866   -1.3879    1.3347 C   0  0  0  0  0  0  0  0  0  0  0  0
    3.9543   -2.4078    0.9414 H   0  0  0  0  0  0  0  0  0  0  0  0
    4.8191   -0.8649    1.1029 H   0  0  0  0  0  0  0  0  0  0  0  0
    3.7806   -1.4365    2.4237 H   0  0  0  0  0  0  0  0  0  0  0  0
  1  2  1  0  0  0  0
  2  3  1  0  0  0  0
  2  4  1  0  0  0  0
  2  5  1  0  0  0  0
  5  6  2  0  0  0  0
  5  7  1  0  0  0  0
  7  8  1  0  0  0  0
  7  9  1  0  0  0  0
  9 10  1  0  0  0  0
  9 11  1  0  0  0  0
  9 16  1  0  0  0  0
 11 12  1  0  0  0  0
 11 13  1  0  0  0  0
 11 14  1  0  0  0  0
 14 15  1  0  0  0  0
 16 17  2  0  0  0  0
 16 18  1  0  0  0  0
 18 19  1  0  0  0  0
 18 20  1  0  0  0  0
 20 21  1  0  0  0  0
 20 22  1  0  0  0  0
 20 23  1  0  0  0  0
M  END
$$$$

  -OEChem-01062216093D

 23 22  0     1  0  0  0  0  0999 V2000
   -2.8285   -3.6596    1.0336 H   0  0  0  0  0  0  0  0  0  0  0  0
   -2.7073   -2.6661    0.5926 C   0  0  0  0  0  0  0  0  0  0  0  0
   -3.5822   -2.0606    0.8395 H   0  0  0  0  0  0  0  0  0  0  0  0
   -2.6354   -2.7722   -0.4923 H   0  0  0  0  0  0  0  0  0  0  0  0
   -1.4513   -2.0086    1.1329 C   0  0  0  0  0  0  0  0  0  0  0  0
   -0.8693   -2.5301    2.0685 O   0  0  0  0  0  0  0  0  0  0  0  0
   -1.1154   -0.7405    0.6910 N   0  0  0  0  0  0  0  0  0  0  0  0
   -1.7614   -0.3854   -0.0040 H   0  0  0  0  0  0  0  0  0  0  0  0
    0.2637   -0.1913    0.6117 C   0  0  1  0  0  0  0  0  0  0  0  0
    0.3576    0.2654   -0.3769 H   0  0  0  0  0  0  0  0  0  0  0  0
    0.4113    0.9384    1.6479 C   0  0  0  0  0  0  0  0  0  0  0  0
    1.3633    1.4602    1.5109 H   0  0  0  0  0  0  0  0  0  0  0  0
   -0.3860    1.6707    1.4847 H   0  0  0  0  0  0  0  0  0  0  0  0
    0.3222    0.4493    2.9875 O   0  0  0  0  0  0  0  0  0  0  0  0
    0.2554    1.1723    3.6335 H   0  0  0  0  0  0  0  0  0  0  0  0
    1.4733   -1.1641    0.6968 C   0  0  0  0  0  0  0  0  0  0  0  0
    1.3739   -2.3029    0.2527 O   0  0  0  0  0  0  0  0  0  0  0  0
    2.7544   -0.6344    0.6295 N   0  0  0  0  0  0  0  0  0  0  0  0
    2.8722    0.2944    1.0200 H   0  0  0  0  0  0  0  0  0  0  0  0
    3.9471   -1.4606    0.4684 C   0  0  0  0  0  0  0  0  0  0  0  0
    3.9333   -1.9711   -0.5004 H   0  0  0  0  0  0  0  0  0  0  0  0
    4.8465   -0.8394    0.5161 H   0  0  0  0  0  0  0  0  0  0  0  0
    4.0028   -2.2131    1.2623 H   0  0  0  0  0  0  0  0  0  0  0  0
  1  2  1  0  0  0  0
  2  3  1  0  0  0  0
  2  4  1  0  0  0  0
  2  5  1  0  0  0  0
  5  6  2  0  0  0  0
  5  7  1  0  0  0  0
  7  8  1  0  0  0  0
  7  9  1  0  0  0  0
  9 10  1  0  0  0  0
  9 11  1  0  0  0  0
  9 16  1  0  0  0  0
 11 12  1  0  0  0  0
 11 13  1  0  0  0  0
 11 14  1  0  0  0  0
 14 15  1  0  0  0  0
 16 17  2  0  0  0  0
 16 18  1  0  0  0  0
 18 19  1  0  0  0  0
 18 20  1  0  0  0  0
 20 21  1  0  0  0  0
 20 22  1  0  0  0  0
 20 23  1  0  0  0  0
M  END
$$$$

  -OEChem-01062216093D

 23 22  0     1  0  0  0  0  0999 V2000
   -2.8022   -3.6655    1.0525 H   0  0  0  0  0  0  0  0  0  0  0  0
   -2.6974   -2.6700    0.6118 C   0  0  0  0  0  0  0  0  0  0  0  0
   -3.5659   -2.0683    0.8894 H   0  0  0  0  0  0  0  0  0  0  0  0
   -2.6605   -2.7713   -0.4755 H   0  0  0  0  0  0  0  0  0  0  0  0
   -1.4257   -2.0111    1.1121 C   0  0  0  0  0  0  0  0  0  0  0  0
   -0.7851   -2.5577    1.9939 O   0  0  0  0  0  0  0  0  0  0  0  0
   -1.1154   -0.7340    0.6766 N   0  0  0  0  0  0  0  0  0  0  0  0
   -1.7775   -0.3722   -0.0000 H   0  0  0  0  0  0  0  0  0  0  0  0
    0.2545   -0.1641    0.5991 C   0  0  1  0  0  0  0  0  0  0  0  0
    0.3506    0.2932   -0.3890 H   0  0  0  0  0  0  0  0  0  0  0  0
    0.3911    0.9691    1.6332 C   0  0  0  0  0  0  0  0  0  0  0  0
    1.3348    1.5048    1.4899 H   0  0  0  0  0  0  0  0  0  0  0  0
   -0.4168    1.6900    1.4709 H   0  0  0  0  0  0  0  0  0  0  0  0
    0.3109    0.4818    2.9746 O   0  0  0  0  0  0  0  0  0  0  0  0
    0.2078    1.2058    3.6151 H   0  0  0  0  0  0  0  0  0  0  0  0
    1.4523   -1.1495    0.6815 C   0  0  0  0  0  0  0  0  0  0  0  0
    1.3989   -2.1883    0.0301 O   0  0  0  0  0  0  0  0  0  0  0  0
    2.7278   -0.6677    0.9344 N   0  0  0  0  0  0  0  0  0  0  0  0
    2.7689    0.1303    1.5605 H   0  0  0  0  0  0  0  0  0  0  0  0
    3.9177   -1.5056    0.8288 C   0  0  0  0  0  0  0  0  0  0  0  0
    4.0664   -1.8338   -0.2053 H   0  0  0  0  0  0  0  0  0  0  0  0
    4.8034   -0.9444    1.1416 H   0  0  0  0  0  0  0  0  0  0  0  0
    3.8225   -2.3894    1.4687 H   0  0  0  0  0  0  0  0  0  0  0  0
  1  2  1  0  0  0  0
  2  3  1  0  0  0  0
  2  4  1  0  0  0  0
  2  5  1  0  0  0  0
  5  6  2  0  0  0  0
  5  7  1  0  0  0  0
  7  8  1  0  0  0  0
  7  9  1  0  0  0  0
  9 10  1  0  0  0  0
  9 11  1  0  0  0  0
  9 16  1  0  0  0  0
 11 12  1  0  0  0  0
 11 13  1  0  0  0  0
 11 14  1  0  0  0  0
 14 15  1  0  0  0  0
 16 17  2  0  0  0  0
 16 18  1  0  0  0  0
 18 19  1  0  0  0  0
 18 20  1  0  0  0  0
 20 21  1  0  0  0  0
 20 22  1  0  0  0  0
 20 23  1  0  0  0  0
M  END
$$$$

  -OEChem-01062216093D

 23 22  0     1  0  0  0  0  0999 V2000
   -2.8059   -3.6638    1.0615 H   0  0  0  0  0  0  0  0  0  0  0  0
   -2.7107   -2.6613    0.6344 C   0  0  0  0  0  0  0  0  0  0  0  0
   -3.5566   -2.0550    0.9665 H   0  0  0  0  0  0  0  0  0  0  0  0
   -2.7303   -2.7422   -0.4550 H   0  0  0  0  0  0  0  0  0  0  0  0
   -1.4075   -2.0258    1.0817 C   0  0  0  0  0  0  0  0  0  0  0  0
   -0.7167   -2.6086    1.9002 O   0  0  0  0  0  0  0  0  0  0  0  0
   -1.1099   -0.7419    0.6573 N   0  0  0  0  0  0  0  0  0  0  0  0
   -1.7926   -0.3597    0.0128 H   0  0  0  0  0  0  0  0  0  0  0  0
    0.2510   -0.1524    0.5848 C   0  0  1  0  0  0  0  0  0  0  0  0
    0.3448    0.3073   -0.4026 H   0  0  0  0  0  0  0  0  0  0  0  0
    0.3773    0.9832    1.6176 C   0  0  0  0  0  0  0  0  0  0  0  0
    1.3166    1.5261    1.4706 H   0  0  0  0  0  0  0  0  0  0  0  0
   -0.4372    1.6964    1.4544 H   0  0  0  0  0  0  0  0  0  0  0  0
    0.3039    0.4984    2.9612 O   0  0  0  0  0  0  0  0  0  0  0  0
    0.1843    1.2244    3.5973 H   0  0  0  0  0  0  0  0  0  0  0  0
    1.4473   -1.1375    0.6626 C   0  0  0  0  0  0  0  0  0  0  0  0
    1.4768   -2.0657   -0.1401 O   0  0  0  0  0  0  0  0  0  0  0  0
    2.6567   -0.7460    1.2133 N   0  0  0  0  0  0  0  0  0  0  0  0
    2.5698   -0.0921    1.9869 H   0  0  0  0  0  0  0  0  0  0  0  0
    3.8394   -1.5986    1.1785 C   0  0  0  0  0  0  0  0  0  0  0  0
    4.1470   -1.7888    0.1448 H   0  0  0  0  0  0  0  0  0  0  0  0
    4.6704   -1.1131    1.6989 H   0  0  0  0  0  0  0  0  0  0  0  0
    3.6347   -2.5572    1.6672 H   0  0  0  0  0  0  0  0  0  0  0  0
  1  2  1  0  0  0  0
  2  3  1  0  0  0  0
  2  4  1  0  0  0  0
  2  5  1  0  0  0  0
  5  6  2  0  0  0  0
  5  7  1  0  0  0  0
  7  8  1  0  0  0  0
  7  9  1  0  0  0  0
  9 10  1  0  0  0  0
  9 11  1  0  0  0  0
  9 16  1  0  0  0  0
 11 12  1  0  0  0  0
 11 13  1  0  0  0  0
 11 14  1  0  0  0  0
 14 15  1  0  0  0  0
 16 17  2  0  0  0  0
 16 18  1  0  0  0  0
 18 19  1  0  0  0  0
 18 20  1  0  0  0  0
 20 21  1  0  0  0  0
 20 22  1  0  0  0  0
 20 23  1  0  0  0  0
M  END
$$$$

  -OEChem-01062216093D

 23 22  0     1  0  0  0  0  0999 V2000
   -2.7871   -3.6776    1.0347 H   0  0  0  0  0  0  0  0  0  0  0  0
   -2.7205   -2.6544    0.6540 C   0  0  0  0  0  0  0  0  0  0  0  0
   -3.5434   -2.0692    1.0711 H   0  0  0  0  0  0  0  0  0  0  0  0
   -2.8111   -2.6796   -0.4345 H   0  0  0  0  0  0  0  0  0  0  0  0
   -1.3916   -2.0378    1.0491 C   0  0  0  0  0  0  0  0  0  0  0  0
   -0.6597   -2.6519    1.8066 O   0  0  0  0  0  0  0  0  0  0  0  0
   -1.1032   -0.7486    0.6349 N   0  0  0  0  0  0  0  0  0  0  0  0
   -1.8072   -0.3425    0.0290 H   0  0  0  0  0  0  0  0  0  0  0  0
    0.2500   -0.1433    0.5668 C   0  0  1  0  0  0  0  0  0  0  0  0
    0.3399    0.3213   -0.4190 H   0  0  0  0  0  0  0  0  0  0  0  0
    0.3665    0.9901    1.6037 C   0  0  0  0  0  0  0  0  0  0  0  0
    1.3046    1.5359    1.4567 H   0  0  0  0  0  0  0  0  0  0  0  0
   -0.4515    1.6995    1.4419 H   0  0  0  0  0  0  0  0  0  0  0  0
    0.2986    0.5040    2.9489 O   0  0  0  0  0  0  0  0  0  0  0  0
    0.1846    1.2325    3.5838 H   0  0  0  0  0  0  0  0  0  0  0  0
    1.4509   -1.1210    0.6395 C   0  0  0  0  0  0  0  0  0  0  0  0
    1.5834   -1.9326   -0.2713 O   0  0  0  0  0  0  0  0  0  0  0  0
    2.5446   -0.8621    1.4468 N   0  0  0  0  0  0  0  0  0  0  0  0
    2.3129   -0.3399    2.2898 H   0  0  0  0  0  0  0  0  0  0  0  0
    3.6967   -1.7535    1.4959 C   0  0  0  0  0  0  0  0  0  0  0  0
    4.1831   -1.8071    0.5163 H   0  0  0  0  0  0  0  0  0  0  0  0
    4.4274   -1.3859    2.2225 H   0  0  0  0  0  0  0  0  0  0  0  0
    3.3879   -2.7619    1.7917 H   0  0  0  0  0  0  0  0  0  0  0  0
  1  2  1  0  0  0  0
  2  3  1  0  0  0  0
  2  4  1  0  0  0  0
  2  5  1  0  0  0  0
  5  6  2  0  0  0  0
  5  7  1  0  0  0  0
  7  8  1  0  0  0  0
  7  9  1  0  0  0  0
  9 10  1  0  0  0  0
  9 11  1  0  0  0  0
  9 16  1  0  0  0  0
 11 12  1  0  0  0  0
 11 13  1  0  0  0  0
 11 14  1  0  0  0  0
 14 15  1  0  0  0  0
 16 17  2  0  0  0  0
 16 18  1  0  0  0  0
 18 19  1  0  0  0  0
 18 20  1  0  0  0  0
 20 21  1  0  0  0  0
 20 22  1  0  0  0  0
 20 23  1  0  0  0  0
M  END
$$$$

  -OEChem-01062216093D

 23 22  0     1  0  0  0  0  0999 V2000
   -2.8184   -3.6602    1.0439 H   0  0  0  0  0  0  0  0  0  0  0  0
   -2.7419   -2.6361    0.6672 C   0  0  0  0  0  0  0  0  0  0  0  0
   -3.5300   -2.0332    1.1245 H   0  0  0  0  0  0  0  0  0  0  0  0
   -2.8820   -2.6507   -0.4162 H   0  0  0  0  0  0  0  0  0  0  0  0
   -1.3815   -2.0553    1.0058 C   0  0  0  0  0  0  0  0  0  0  0  0
   -0.6166   -2.7103    1.6927 O   0  0  0  0  0  0  0  0  0  0  0  0
   -1.0910   -0.7621    0.6066 N   0  0  0  0  0  0  0  0  0  0  0  0
   -1.8159   -0.3206    0.0519 H   0  0  0  0  0  0  0  0  0  0  0  0
    0.2567   -0.1449    0.5520 C   0  0  1  0  0  0  0  0  0  0  0  0
    0.3466    0.3294   -0.4294 H   0  0  0  0  0  0  0  0  0  0  0  0
    0.3487    0.9815    1.5994 C   0  0  0  0  0  0  0  0  0  0  0  0
    1.2869    1.5309    1.4664 H   0  0  0  0  0  0  0  0  0  0  0  0
   -0.4713    1.6873    1.4318 H   0  0  0  0  0  0  0  0  0  0  0  0
    0.2718    0.4891    2.9438 O   0  0  0  0  0  0  0  0  0  0  0  0
    0.1818    1.2191    3.5813 H   0  0  0  0  0  0  0  0  0  0  0  0
    1.4707   -1.1049    0.6237 C   0  0  0  0  0  0  0  0  0  0  0  0
    1.7291   -1.7831   -0.3652 O   0  0  0  0  0  0  0  0  0  0  0  0
    2.4073   -1.0172    1.6371 N   0  0  0  0  0  0  0  0  0  0  0  0
    2.0382   -0.6076    2.4949 H   0  0  0  0  0  0  0  0  0  0  0  0
    3.5171   -1.9543    1.7482 C   0  0  0  0  0  0  0  0  0  0  0  0
    4.1544   -1.9034    0.8592 H   0  0  0  0  0  0  0  0  0  0  0  0
    4.1283   -1.7133    2.6231 H   0  0  0  0  0  0  0  0  0  0  0  0
    3.1425   -2.9779    1.8555 H   0  0  0  0  0  0  0  0  0  0  0  0
  1  2  1  0  0  0  0
  2  3  1  0  0  0  0
  2  4  1  0  0  0  0
  2  5  1  0  0  0  0
  5  6  2  0  0  0  0
  5  7  1  0  0  0  0
  7  8  1  0  0  0  0
  7  9  1  0  0  0  0
  9 10  1  0  0  0  0
  9 11  1  0  0  0  0
  9 16  1  0  0  0  0
 11 12  1  0  0  0  0
 11 13  1  0  0  0  0
 11 14  1  0  0  0  0
 14 15  1  0  0  0  0
 16 17  2  0  0  0  0
 16 18  1  0  0  0  0
 18 19  1  0  0  0  0
 18 20  1  0  0  0  0
 20 21  1  0  0  0  0
 20 22  1  0  0  0  0
 20 23  1  0  0  0  0
M  END
$$$$

  -OEChem-01062216093D

 23 22  0     1  0  0  0  0  0999 V2000
   -2.8292   -3.6589    1.0125 H   0  0  0  0  0  0  0  0  0  0  0  0
   -2.7603   -2.6185    0.6824 C   0  0  0  0  0  0  0  0  0  0  0  0
   -3.5100   -2.0297    1.2161 H   0  0  0  0  0  0  0  0  0  0  0  0
   -2.9664   -2.5773   -0.3897 H   0  0  0  0  0  0  0  0  0  0  0  0
   -1.3737   -2.0714    0.9657 C   0  0  0  0  0  0  0  0  0  0  0  0
   -0.5865   -2.7612    1.5900 O   0  0  0  0  0  0  0  0  0  0  0  0
   -1.0764   -0.7774    0.5748 N   0  0  0  0  0  0  0  0  0  0  0  0
   -1.8188   -0.3029    0.0730 H   0  0  0  0  0  0  0  0  0  0  0  0
    0.2671   -0.1503    0.5370 C   0  0  1  0  0  0  0  0  0  0  0  0
    0.3609    0.3293   -0.4418 H   0  0  0  0  0  0  0  0  0  0  0  0
    0.3292    0.9741    1.5886 C   0  0  0  0  0  0  0  0  0  0  0  0
    1.2676    1.5268    1.4724 H   0  0  0  0  0  0  0  0  0  0  0  0
   -0.4909    1.6765    1.4078 H   0  0  0  0  0  0  0  0  0  0  0  0
    0.2349    0.4811    2.9329 O   0  0  0  0  0  0  0  0  0  0  0  0
    0.1886    1.2146    3.5713 H   0  0  0  0  0  0  0  0  0  0  0  0
    1.4956   -1.0897    0.6211 C   0  0  0  0  0  0  0  0  0  0  0  0
    1.8945   -1.6197   -0.4103 O   0  0  0  0  0  0  0  0  0  0  0  0
    2.2472   -1.2046    1.7748 N   0  0  0  0  0  0  0  0  0  0  0  0
    1.7525   -0.9002    2.6138 H   0  0  0  0  0  0  0  0  0  0  0  0
    3.3009   -2.1993    1.9187 C   0  0  0  0  0  0  0  0  0  0  0  0
    4.0877   -2.0370    1.1747 H   0  0  0  0  0  0  0  0  0  0  0  0
    3.7493   -2.1320    2.9143 H   0  0  0  0  0  0  0  0  0  0  0  0
    2.8930   -3.2073    1.7876 H   0  0  0  0  0  0  0  0  0  0  0  0
  1  2  1  0  0  0  0
  2  3  1  0  0  0  0
  2  4  1  0  0  0  0
  2  5  1  0  0  0  0
  5  6  2  0  0  0  0
  5  7  1  0  0  0  0
  7  8  1  0  0  0  0
  7  9  1  0  0  0  0
  9 10  1  0  0  0  0
  9 11  1  0  0  0  0
  9 16  1  0  0  0  0
 11 12  1  0  0  0  0
 11 13  1  0  0  0  0
 11 14  1  0  0  0  0
 14 15  1  0  0  0  0
 16 17  2  0  0  0  0
 16 18  1  0  0  0  0
 18 19  1  0  0  0  0
 18 20  1  0  0  0  0
 20 21  1  0  0  0  0
 20 22  1  0  0  0  0
 20 23  1  0  0  0  0
M  END
$$$$

  -OEChem-01062216093D

 23 22  0     1  0  0  0  0  0999 V2000
   -2.9025   -3.6290    0.9683 H   0  0  0  0  0  0  0  0  0  0  0  0
   -2.8178   -2.5740    0.6927 C   0  0  0  0  0  0  0  0  0  0  0  0
   -3.5105   -1.9933    1.3063 H   0  0  0  0  0  0  0  0  0  0  0  0
   -3.0912   -2.4647   -0.3594 H   0  0  0  0  0  0  0  0  0  0  0  0
   -1.3970   -2.0886    0.9144 C   0  0  0  0  0  0  0  0  0  0  0  0
   -0.6044   -2.8277    1.4704 O   0  0  0  0  0  0  0  0  0  0  0  0
   -1.0675   -0.8014    0.5286 N   0  0  0  0  0  0  0  0  0  0  0  0
   -1.8200   -0.2766    0.0965 H   0  0  0  0  0  0  0  0  0  0  0  0
    0.2796   -0.1803    0.5192 C   0  0  1  0  0  0  0  0  0  0  0  0
    0.3902    0.3008   -0.4572 H   0  0  0  0  0  0  0  0  0  0  0  0
    0.3129    0.9405    1.5741 C   0  0  0  0  0  0  0  0  0  0  0  0
    1.2575    1.4878    1.4861 H   0  0  0  0  0  0  0  0  0  0  0  0
   -0.4983    1.6476    1.3736 H   0  0  0  0  0  0  0  0  0  0  0  0
    0.1821    0.4415    2.9136 O   0  0  0  0  0  0  0  0  0  0  0  0
    0.1888    1.1707    3.5584 H   0  0  0  0  0  0  0  0  0  0  0  0
    1.5214   -1.0988    0.6356 C   0  0  0  0  0  0  0  0  0  0  0  0
    2.0947   -1.4414   -0.3928 O   0  0  0  0  0  0  0  0  0  0  0  0
    2.0684   -1.4342    1.8589 N   0  0  0  0  0  0  0  0  0  0  0  0
    1.4450   -1.2642    2.6484 H   0  0  0  0  0  0  0  0  0  0  0  0
    3.1162   -2.4343    2.0040 C   0  0  0  0  0  0  0  0  0  0  0  0
    3.9951   -2.1609    1.4110 H   0  0  0  0  0  0  0  0  0  0  0  0
    3.4196   -2.5116    3.0523 H   0  0  0  0  0  0  0  0  0  0  0  0
    2.7557   -3.4133    1.6715 H   0  0  0  0  0  0  0  0  0  0  0  0
  1  2  1  0  0  0  0
  2  3  1  0  0  0  0
  2  4  1  0  0  0  0
  2  5  1  0  0  0  0
  5  6  2  0  0  0  0
  5  7  1  0  0  0  0
  7  8  1  0  0  0  0
  7  9  1  0  0  0  0
  9 10  1  0  0  0  0
  9 11  1  0  0  0  0
  9 16  1  0  0  0  0
 11 12  1  0  0  0  0
 11 13  1  0  0  0  0
 11 14  1  0  0  0  0
 14 15  1  0  0  0  0
 16 17  2  0  0  0  0
 16 18  1  0  0  0  0
 18 19  1  0  0  0  0
 18 20  1  0  0  0  0
 20 21  1  0  0  0  0
 20 22  1  0  0  0  0
 20 23  1  0  0  0  0
M  END
$$$$

  -OEChem-01062216093D

 23 22  0     1  0  0  0  0  0999 V2000
   -3.0252   -3.5649    0.9749 H   0  0  0  0  0  0  0  0  0  0  0  0
   -2.8967   -2.5155    0.6947 C   0  0  0  0  0  0  0  0  0  0  0  0
   -3.5441   -1.9011    1.3250 H   0  0  0  0  0  0  0  0  0  0  0  0
   -3.1920   -2.3942   -0.3501 H   0  0  0  0  0  0  0  0  0  0  0  0
   -1.4493   -2.0985    0.8780 C   0  0  0  0  0  0  0  0  0  0  0  0
   -0.6744   -2.8836    1.3929 O   0  0  0  0  0  0  0  0  0  0  0  0
   -1.0739   -0.8247    0.4921 N   0  0  0  0  0  0  0  0  0  0  0  0
   -1.8229   -0.2561    0.1120 H   0  0  0  0  0  0  0  0  0  0  0  0
    0.2819   -0.2207    0.5067 C   0  0  1  0  0  0  0  0  0  0  0  0
    0.4096    0.2573   -0.4695 H   0  0  0  0  0  0  0  0  0  0  0  0
    0.3029    0.8997    1.5599 C   0  0  0  0  0  0  0  0  0  0  0  0
    1.2565    1.4346    1.4944 H   0  0  0  0  0  0  0  0  0  0  0  0
   -0.4945    1.6181    1.3436 H   0  0  0  0  0  0  0  0  0  0  0  0
    0.1369    0.3947    2.8924 O   0  0  0  0  0  0  0  0  0  0  0  0
    0.2043    1.1115    3.5471 H   0  0  0  0  0  0  0  0  0  0  0  0
    1.5338   -1.1216    0.6592 C   0  0  0  0  0  0  0  0  0  0  0  0
    2.2835   -1.2426   -0.3036 O   0  0  0  0  0  0  0  0  0  0  0  0
    1.8946   -1.6893    1.8657 N   0  0  0  0  0  0  0  0  0  0  0  0
    1.1376   -1.7171    2.5486 H   0  0  0  0  0  0  0  0  0  0  0  0
    2.9734   -2.6587    1.9915 C   0  0  0  0  0  0  0  0  0  0  0  0
    3.9130   -2.2415    1.6146 H   0  0  0  0  0  0  0  0  0  0  0  0
    3.1148   -2.9290    3.0423 H   0  0  0  0  0  0  0  0  0  0  0  0
    2.7370   -3.5661    1.4262 H   0  0  0  0  0  0  0  0  0  0  0  0
  1  2  1  0  0  0  0
  2  3  1  0  0  0  0
  2  4  1  0  0  0  0
  2  5  1  0  0  0  0
  5  6  2  0  0  0  0
  5  7  1  0  0  0  0
  7  8  1  0  0  0  0
  7  9  1  0  0  0  0
  9 10  1  0  0  0  0
  9 11  1  0  0  0  0
  9 16  1  0  0  0  0
 11 12  1  0  0  0  0
 11 13  1  0  0  0  0
 11 14  1  0  0  0  0
 14 15  1  0  0  0  0
 16 17  2  0  0  0  0
 16 18  1  0  0  0  0
 18 19  1  0  0  0  0
 18 20  1  0  0  0  0
 20 21  1  0  0  0  0
 20 22  1  0  0  0  0
 20 23  1  0  0  0  0
M  END
$$$$

  -OEChem-01062216093D

 23 22  0     1  0  0  0  0  0999 V2000
   -3.1894   -3.4711    1.0064 H   0  0  0  0  0  0  0  0  0  0  0  0
   -3.0022   -2.4389    0.6967 C   0  0  0  0  0  0  0  0  0  0  0  0
   -3.6042   -1.7714    1.3178 H   0  0  0  0  0  0  0  0  0  0  0  0
   -3.3030   -2.3267   -0.3477 H   0  0  0  0  0  0  0  0  0  0  0  0
   -1.5303   -2.1039    0.8524 C   0  0  0  0  0  0  0  0  0  0  0  0
   -0.7897   -2.9401    1.3357 O   0  0  0  0  0  0  0  0  0  0  0  0
   -1.0963   -0.8491    0.4674 N   0  0  0  0  0  0  0  0  0  0  0  0
   -1.8321   -0.2361    0.1329 H   0  0  0  0  0  0  0  0  0  0  0  0
    0.2740   -0.2743    0.4970 C   0  0  1  0  0  0  0  0  0  0  0  0
    0.4150    0.1957   -0.4809 H   0  0  0  0  0  0  0  0  0  0  0  0
    0.3023    0.8497    1.5435 C   0  0  0  0  0  0  0  0  0  0  0  0
    1.2675    1.3649    1.4918 H   0  0  0  0  0  0  0  0  0  0  0  0
   -0.4769    1.5837    1.3147 H   0  0  0  0  0  0  0  0  0  0  0  0
    0.1058    0.3465    2.8709 O   0  0  0  0  0  0  0  0  0  0  0  0
    0.2249    1.0500    3.5323 H   0  0  0  0  0  0  0  0  0  0  0  0
    1.5337   -1.1613    0.6748 C   0  0  0  0  0  0  0  0  0  0  0  0
    2.4345   -1.0457   -0.1494 O   0  0  0  0  0  0  0  0  0  0  0  0
    1.7495   -1.9593    1.7809 N   0  0  0  0  0  0  0  0  0  0  0  0
    0.8918   -2.2048    2.2788 H   0  0  0  0  0  0  0  0  0  0  0  0
    2.8871   -2.8609    1.8951 C   0  0  0  0  0  0  0  0  0  0  0  0
    3.8274   -2.3033    1.8331 H   0  0  0  0  0  0  0  0  0  0  0  0
    2.8587   -3.3807    2.8574 H   0  0  0  0  0  0  0  0  0  0  0  0
    2.8646   -3.6075    1.0945 H   0  0  0  0  0  0  0  0  0  0  0  0
  1  2  1  0  0  0  0
  2  3  1  0  0  0  0
  2  4  1  0  0  0  0
  2  5  1  0  0  0  0
  5  6  2  0  0  0  0
  5  7  1  0  0  0  0
  7  8  1  0  0  0  0
  7  9  1  0  0  0  0
  9 10  1  0  0  0  0
  9 11  1  0  0  0  0
  9 16  1  0  0  0  0
 11 12  1  0  0  0  0
 11 13  1  0  0  0  0
 11 14  1  0  0  0  0
 14 15  1  0  0  0  0
 16 17  2  0  0  0  0
 16 18  1  0  0  0  0
 18 19  1  0  0  0  0
 18 20  1  0  0  0  0
 20 21  1  0  0  0  0
 20 22  1  0  0  0  0
 20 23  1  0  0  0  0
M  END
$$$$

  -OEChem-01062216093D

 23 22  0     1  0  0  0  0  0999 V2000
   -3.3380   -3.3694    1.0231 H   0  0  0  0  0  0  0  0  0  0  0  0
   -3.0990   -2.3471    0.7164 C   0  0  0  0  0  0  0  0  0  0  0  0
   -3.6252   -1.6516    1.3746 H   0  0  0  0  0  0  0  0  0  0  0  0
   -3.4422   -2.1999   -0.3104 H   0  0  0  0  0  0  0  0  0  0  0  0
   -1.6027   -2.1104    0.8028 C   0  0  0  0  0  0  0  0  0  0  0  0
   -0.8959   -3.0167    1.2012 O   0  0  0  0  0  0  0  0  0  0  0  0
   -1.1141   -0.8733    0.4258 N   0  0  0  0  0  0  0  0  0  0  0  0
   -1.8383   -0.2132    0.1639 H   0  0  0  0  0  0  0  0  0  0  0  0
    0.2676   -0.3223    0.4733 C   0  0  1  0  0  0  0  0  0  0  0  0
    0.4231    0.1488   -0.5022 H   0  0  0  0  0  0  0  0  0  0  0  0
    0.2920    0.7931    1.5280 C   0  0  0  0  0  0  0  0  0  0  0  0
    1.2631    1.2994    1.4989 H   0  0  0  0  0  0  0  0  0  0  0  0
   -0.4757    1.5381    1.2955 H   0  0  0  0  0  0  0  0  0  0  0  0
    0.0675    0.2724    2.8438 O   0  0  0  0  0  0  0  0  0  0  0  0
    0.2073    0.9583    3.5193 H   0  0  0  0  0  0  0  0  0  0  0  0
    1.5386   -1.1902    0.6734 C   0  0  0  0  0  0  0  0  0  0  0  0
    2.5328   -0.8880    0.0217 O   0  0  0  0  0  0  0  0  0  0  0  0
    1.6578   -2.1967    1.6103 N   0  0  0  0  0  0  0  0  0  0  0  0
    0.7655   -2.5504    1.9628 H   0  0  0  0  0  0  0  0  0  0  0  0
    2.8295   -3.0541    1.7199 C   0  0  0  0  0  0  0  0  0  0  0  0
    3.7255   -2.4573    1.9191 H   0  0  0  0  0  0  0  0  0  0  0  0
    2.6989   -3.7634    2.5426 H   0  0  0  0  0  0  0  0  0  0  0  0
    2.9782   -3.6182    0.7936 H   0  0  0  0  0  0  0  0  0  0  0  0
  1  2  1  0  0  0  0
  2  3  1  0  0  0  0
  2  4  1  0  0  0  0
  2  5  1  0  0  0  0
  5  6  2  0  0  0  0
  5  7  1  0  0  0  0
  7  8  1  0  0  0  0
  7  9  1  0  0  0  0
  9 10  1  0  0  0  0
  9 11  1  0  0  0  0
  9 16  1  0  0  0  0
 11 12  1  0  0  0  0
 11 13  1  0  0  0  0
 11 14  1  0  0  0  0
 14 15  1  0  0  0  0
 16 17  2  0  0  0  0
 16 18  1  0  0  0  0
 18 19  1  0  0  0  0
 18 20  1  0  0  0  0
 20 21  1  0  0  0  0
 20 22  1  0  0  0  0
 20 23  1  0  0  0  0
M  END
$$$$

  -OEChem-01062216093D

 23 22  0     1  0  0  0  0  0999 V2000
   -3.4378   -3.3337    1.1387 H   0  0  0  0  0  0  0  0  0  0  0  0
   -3.1784   -2.3132    0.8421 C   0  0  0  0  0  0  0  0  0  0  0  0
   -3.6301   -1.6162    1.5520 H   0  0  0  0  0  0  0  0  0  0  0  0
   -3.5848   -2.1246   -0.1545 H   0  0  0  0  0  0  0  0  0  0  0  0
   -1.6711   -2.1367    0.8319 C   0  0  0  0  0  0  0  0  0  0  0  0
   -0.9801   -3.0789    1.1693 O   0  0  0  0  0  0  0  0  0  0  0  0
   -1.1630   -0.9191    0.4180 N   0  0  0  0  0  0  0  0  0  0  0  0
   -1.8861   -0.2385    0.2109 H   0  0  0  0  0  0  0  0  0  0  0  0
    0.2249   -0.3774    0.4185 C   0  0  1  0  0  0  0  0  0  0  0  0
    0.3550    0.0728   -0.5701 H   0  0  0  0  0  0  0  0  0  0  0  0
    0.2685    0.7573    1.4533 C   0  0  0  0  0  0  0  0  0  0  0  0
    1.2367    1.2673    1.3992 H   0  0  0  0  0  0  0  0  0  0  0  0
   -0.5051    1.4969    1.2233 H   0  0  0  0  0  0  0  0  0  0  0  0
    0.0687    0.2552    2.7801 O   0  0  0  0  0  0  0  0  0  0  0  0
    0.2317    0.9484    3.4430 H   0  0  0  0  0  0  0  0  0  0  0  0
    1.5183   -1.2172    0.6073 C   0  0  0  0  0  0  0  0  0  0  0  0
    2.5423   -0.7776    0.0942 O   0  0  0  0  0  0  0  0  0  0  0  0
    1.6244   -2.3792    1.3432 N   0  0  0  0  0  0  0  0  0  0  0  0
    0.7396   -2.7942    1.6432 H   0  0  0  0  0  0  0  0  0  0  0  0
    2.8409   -3.1724    1.4476 C   0  0  0  0  0  0  0  0  0  0  0  0
    3.6518   -2.5759    1.8782 H   0  0  0  0  0  0  0  0  0  0  0  0
    2.6694   -4.0381    2.0942 H   0  0  0  0  0  0  0  0  0  0  0  0
    3.1505   -3.5316    0.4608 H   0  0  0  0  0  0  0  0  0  0  0  0
  1  2  1  0  0  0  0
  2  3  1  0  0  0  0
  2  4  1  0  0  0  0
  2  5  1  0  0  0  0
  5  6  2  0  0  0  0
  5  7  1  0  0  0  0
  7  8  1  0  0  0  0
  7  9  1  0  0  0  0
  9 10  1  0  0  0  0
  9 11  1  0  0  0  0
  9 16  1  0  0  0  0
 11 12  1  0  0  0  0
 11 13  1  0  0  0  0
 11 14  1  0  0  0  0
 14 15  1  0  0  0  0
 16 17  2  0  0  0  0
 16 18  1  0  0  0  0
 18 19  1  0  0  0  0
 18 20  1  0  0  0  0
 20 21  1  0  0  0  0
 20 22  1  0  0  0  0
 20 23  1  0  0  0  0
M  END
$$$$

  -OEChem-01062216093D

 23 22  0     1  0  0  0  0  0999 V2000
   -2.7720   -2.4948    1.7151 H   0  0  0  0  0  0  0  0  0  0  0  0
   -2.6204   -2.7582    0.6655 C   0  0  0  0  0  0  0  0  0  0  0  0
   -3.4261   -2.3273    0.0664 H   0  0  0  0  0  0  0  0  0  0  0  0
   -2.6536   -3.8473    0.5696 H   0  0  0  0  0  0  0  0  0  0  0  0
   -1.2795   -2.2324    0.1886 C   0  0  0  0  0  0  0  0  0  0  0  0
   -0.5333   -2.9864   -0.4051 O   0  0  0  0  0  0  0  0  0  0  0  0
   -1.0417   -0.8755    0.2451 N   0  0  0  0  0  0  0  0  0  0  0  0
   -1.8449   -0.3789    0.6146 H   0  0  0  0  0  0  0  0  0  0  0  0
    0.2397   -0.1586    0.4838 C   0  0  1  0  0  0  0  0  0  0  0  0
    0.2637    0.6131   -0.2918 H   0  0  0  0  0  0  0  0  0  0  0  0
    0.1070    0.5577    1.8361 C   0  0  0  0  0  0  0  0  0  0  0  0
    0.9771    1.2037    1.9978 H   0  0  0  0  0  0  0  0  0  0  0  0
   -0.7791    1.2006    1.8258 H   0  0  0  0  0  0  0  0  0  0  0  0
    0.0020   -0.3794    2.9152 O   0  0  0  0  0  0  0  0  0  0  0  0
    0.0309    0.0791    3.7739 H   0  0  0  0  0  0  0  0  0  0  0  0
    1.6747   -0.7616    0.4163 C   0  0  0  0  0  0  0  0  0  0  0  0
    2.5827    0.0012    0.1152 O   0  0  0  0  0  0  0  0  0  0  0  0
    2.1090   -2.0666    0.4105 N   0  0  0  0  0  0  0  0  0  0  0  0
    3.0766   -2.1286    0.1091 H   0  0  0  0  0  0  0  0  0  0  0  0
    1.7138   -3.0064    1.4523 C   0  0  0  0  0  0  0  0  0  0  0  0
    2.5039   -3.0838    2.2053 H   0  0  0  0  0  0  0  0  0  0  0  0
    0.7964   -2.6915    1.9565 H   0  0  0  0  0  0  0  0  0  0  0  0
    1.5455   -3.9972    1.0186 H   0  0  0  0  0  0  0  0  0  0  0  0
  1  2  1  0  0  0  0
  2  3  1  0  0  0  0
  2  4  1  0  0  0  0
  2  5  1  0  0  0  0
  5  6  2  0  0  0  0
  5  7  1  0  0  0  0
  7  8  1  0  0  0  0
  7  9  1  0  0  0  0
  9 10  1  0  0  0  0
  9 11  1  0  0  0  0
  9 16  1  0  0  0  0
 11 12  1  0  0  0  0
 11 13  1  0  0  0  0
 11 14  1  0  0  0  0
 14 15  1  0  0  0  0
 16 17  2  0  0  0  0
 16 18  1  0  0  0  0
 18 19  1  0  0  0  0
 18 20  1  0  0  0  0
 20 21  1  0  0  0  0
 20 22  1  0  0  0  0
 20 23  1  0  0  0  0
M  END
$$$$

  -OEChem-01062216093D

 23 22  0     1  0  0  0  0  0999 V2000
   -2.7313   -3.7729    1.4604 H   0  0  0  0  0  0  0  0  0  0  0  0
   -2.6703   -2.6825    1.4014 C   0  0  0  0  0  0  0  0  0  0  0  0
   -2.5836   -2.2818    2.4142 H   0  0  0  0  0  0  0  0  0  0  0  0
   -3.5855   -2.3026    0.9410 H   0  0  0  0  0  0  0  0  0  0  0  0
   -1.4648   -2.2706    0.5776 C   0  0  0  0  0  0  0  0  0  0  0  0
   -0.8913   -3.1190   -0.0759 O   0  0  0  0  0  0  0  0  0  0  0  0
   -1.2032   -0.9260    0.4201 N   0  0  0  0  0  0  0  0  0  0  0  0
   -1.9014   -0.3650    0.8953 H   0  0  0  0  0  0  0  0  0  0  0  0
    0.1035   -0.2257    0.2923 C   0  0  1  0  0  0  0  0  0  0  0  0
   -0.0356    0.4707   -0.5399 H   0  0  0  0  0  0  0  0  0  0  0  0
    0.2679    0.6010    1.5777 C   0  0  0  0  0  0  0  0  0  0  0  0
    1.1509    1.2445    1.4978 H   0  0  0  0  0  0  0  0  0  0  0  0
   -0.5997    1.2557    1.7093 H   0  0  0  0  0  0  0  0  0  0  0  0
    0.3996   -0.2524    2.7223 O   0  0  0  0  0  0  0  0  0  0  0  0
    0.6341    0.2657    3.5128 H   0  0  0  0  0  0  0  0  0  0  0  0
    1.4937   -0.8624   -0.0088 C   0  0  0  0  0  0  0  0  0  0  0  0
    2.3635   -0.1108   -0.4284 O   0  0  0  0  0  0  0  0  0  0  0  0
    1.8542   -2.1707   -0.2176 N   0  0  0  0  0  0  0  0  0  0  0  0
    2.7040   -2.2152   -0.7717 H   0  0  0  0  0  0  0  0  0  0  0  0
    1.8264   -3.0958    0.9090 C   0  0  0  0  0  0  0  0  0  0  0  0
    1.1135   -2.7761    1.6757 H   0  0  0  0  0  0  0  0  0  0  0  0
    1.5409   -4.0958    0.5671 H   0  0  0  0  0  0  0  0  0  0  0  0
    2.8169   -3.1540    1.3709 H   0  0  0  0  0  0  0  0  0  0  0  0
  1  2  1  0  0  0  0
  2  3  1  0  0  0  0
  2  4  1  0  0  0  0
  2  5  1  0  0  0  0
  5  6  2  0  0  0  0
  5  7  1  0  0  0  0
  7  8  1  0  0  0  0
  7  9  1  0  0  0  0
  9 10  1  0  0  0  0
  9 11  1  0  0  0  0
  9 16  1  0  0  0  0
 11 12  1  0  0  0  0
 11 13  1  0  0  0  0
 11 14  1  0  0  0  0
 14 15  1  0  0  0  0
 16 17  2  0  0  0  0
 16 18  1  0  0  0  0
 18 19  1  0  0  0  0
 18 20  1  0  0  0  0
 20 21  1  0  0  0  0
 20 22  1  0  0  0  0
 20 23  1  0  0  0  0
M  END
$$$$

  -OEChem-01062216093D

 23 22  0     1  0  0  0  0  0999 V2000
   -3.4606   -3.2601    1.1117 H   0  0  0  0  0  0  0  0  0  0  0  0
   -3.1904   -2.2445    0.8079 C   0  0  0  0  0  0  0  0  0  0  0  0
   -3.6256   -1.5390    1.5201 H   0  0  0  0  0  0  0  0  0  0  0  0
   -3.6037   -2.0539   -0.1855 H   0  0  0  0  0  0  0  0  0  0  0  0
   -1.6811   -2.0887    0.7817 C   0  0  0  0  0  0  0  0  0  0  0  0
   -0.9998   -3.0546    1.0680 O   0  0  0  0  0  0  0  0  0  0  0  0
   -1.1622   -0.8552    0.4322 N   0  0  0  0  0  0  0  0  0  0  0  0
   -1.8785   -0.1505    0.2927 H   0  0  0  0  0  0  0  0  0  0  0  0
    0.2362   -0.3380    0.4167 C   0  0  1  0  0  0  0  0  0  0  0  0
    0.3498    0.1784   -0.5407 H   0  0  0  0  0  0  0  0  0  0  0  0
    0.2971    0.7226    1.5334 C   0  0  0  0  0  0  0  0  0  0  0  0
    1.2561    1.2506    1.5044 H   0  0  0  0  0  0  0  0  0  0  0  0
   -0.4861    1.4708    1.3737 H   0  0  0  0  0  0  0  0  0  0  0  0
    0.1201    0.1215    2.8218 O   0  0  0  0  0  0  0  0  0  0  0  0
    0.3563    0.7444    3.5306 H   0  0  0  0  0  0  0  0  0  0  0  0
    1.5194   -1.2187    0.4974 C   0  0  0  0  0  0  0  0  0  0  0  0
    2.6043   -0.6466    0.5473 O   0  0  0  0  0  0  0  0  0  0  0  0
    1.5528   -2.5849    0.2997 N   0  0  0  0  0  0  0  0  0  0  0  0
    0.6577   -3.0601    0.4273 H   0  0  0  0  0  0  0  0  0  0  0  0
    2.7681   -3.3828    0.3996 C   0  0  0  0  0  0  0  0  0  0  0  0
    3.2183   -3.2726    1.3916 H   0  0  0  0  0  0  0  0  0  0  0  0
    2.5365   -4.4400    0.2388 H   0  0  0  0  0  0  0  0  0  0  0  0
    3.4962   -3.0709   -0.3565 H   0  0  0  0  0  0  0  0  0  0  0  0
  1  2  1  0  0  0  0
  2  3  1  0  0  0  0
  2  4  1  0  0  0  0
  2  5  1  0  0  0  0
  5  6  2  0  0  0  0
  5  7  1  0  0  0  0
  7  8  1  0  0  0  0
  7  9  1  0  0  0  0
  9 10  1  0  0  0  0
  9 11  1  0  0  0  0
  9 16  1  0  0  0  0
 11 12  1  0  0  0  0
 11 13  1  0  0  0  0
 11 14  1  0  0  0  0
 14 15  1  0  0  0  0
 16 17  2  0  0  0  0
 16 18  1  0  0  0  0
 18 19  1  0  0  0  0
 18 20  1  0  0  0  0
 20 21  1  0  0  0  0
 20 22  1  0  0  0  0
 20 23  1  0  0  0  0
M  END
$$$$

  -OEChem-01062216093D

 23 22  0     1  0  0  0  0  0999 V2000
   -3.3489   -3.3099    1.1581 H   0  0  0  0  0  0  0  0  0  0  0  0
   -3.1165   -2.2838    0.8587 C   0  0  0  0  0  0  0  0  0  0  0  0
   -3.5134   -1.6014    1.6142 H   0  0  0  0  0  0  0  0  0  0  0  0
   -3.5997   -2.0794   -0.0997 H   0  0  0  0  0  0  0  0  0  0  0  0
   -1.6152   -2.1012    0.7337 C   0  0  0  0  0  0  0  0  0  0  0  0
   -0.8989   -3.0707    0.8988 O   0  0  0  0  0  0  0  0  0  0  0  0
   -1.1357   -0.8474    0.4018 N   0  0  0  0  0  0  0  0  0  0  0  0
   -1.8649   -0.1431    0.3618 H   0  0  0  0  0  0  0  0  0  0  0  0
    0.2535   -0.3098    0.4101 C   0  0  1  0  0  0  0  0  0  0  0  0
    0.3771    0.2112   -0.5431 H   0  0  0  0  0  0  0  0  0  0  0  0
    0.2807    0.7509    1.5282 C   0  0  0  0  0  0  0  0  0  0  0  0
    1.2325    1.2922    1.5135 H   0  0  0  0  0  0  0  0  0  0  0  0
   -0.5094    1.4890    1.3564 H   0  0  0  0  0  0  0  0  0  0  0  0
    0.0908    0.1458    2.8131 O   0  0  0  0  0  0  0  0  0  0  0  0
    0.3709    0.7477    3.5243 H   0  0  0  0  0  0  0  0  0  0  0  0
    1.5302   -1.1991    0.4960 C   0  0  0  0  0  0  0  0  0  0  0  0
    2.6014   -0.6738    0.7853 O   0  0  0  0  0  0  0  0  0  0  0  0
    1.5864   -2.4833   -0.0107 N   0  0  0  0  0  0  0  0  0  0  0  0
    0.6854   -2.9658   -0.0113 H   0  0  0  0  0  0  0  0  0  0  0  0
    2.7867   -3.3076    0.0550 C   0  0  0  0  0  0  0  0  0  0  0  0
    3.1059   -3.4380    1.0943 H   0  0  0  0  0  0  0  0  0  0  0  0
    2.5882   -4.2945   -0.3739 H   0  0  0  0  0  0  0  0  0  0  0  0
    3.6024   -2.8447   -0.5100 H   0  0  0  0  0  0  0  0  0  0  0  0
  1  2  1  0  0  0  0
  2  3  1  0  0  0  0
  2  4  1  0  0  0  0
  2  5  1  0  0  0  0
  5  6  2  0  0  0  0
  5  7  1  0  0  0  0
  7  8  1  0  0  0  0
  7  9  1  0  0  0  0
  9 10  1  0  0  0  0
  9 11  1  0  0  0  0
  9 16  1  0  0  0  0
 11 12  1  0  0  0  0
 11 13  1  0  0  0  0
 11 14  1  0  0  0  0
 14 15  1  0  0  0  0
 16 17  2  0  0  0  0
 16 18  1  0  0  0  0
 18 19  1  0  0  0  0
 18 20  1  0  0  0  0
 20 21  1  0  0  0  0
 20 22  1  0  0  0  0
 20 23  1  0  0  0  0
M  END
$$$$

  -OEChem-01062216093D

 23 22  0     1  0  0  0  0  0999 V2000
   -3.1773   -3.3778    1.2002 H   0  0  0  0  0  0  0  0  0  0  0  0
   -3.0110   -2.3313    0.9290 C   0  0  0  0  0  0  0  0  0  0  0  0
   -3.3776   -1.6975    1.7403 H   0  0  0  0  0  0  0  0  0  0  0  0
   -3.5730   -2.1102    0.0184 H   0  0  0  0  0  0  0  0  0  0  0  0
   -1.5325   -2.0765    0.7026 C   0  0  0  0  0  0  0  0  0  0  0  0
   -0.7557   -3.0091    0.7903 O   0  0  0  0  0  0  0  0  0  0  0  0
   -1.1276   -0.8019    0.3528 N   0  0  0  0  0  0  0  0  0  0  0  0
   -1.8840   -0.1250    0.3873 H   0  0  0  0  0  0  0  0  0  0  0  0
    0.2368   -0.2102    0.3729 C   0  0  1  0  0  0  0  0  0  0  0  0
    0.3647    0.2997   -0.5858 H   0  0  0  0  0  0  0  0  0  0  0  0
    0.2218    0.8706    1.4705 C   0  0  0  0  0  0  0  0  0  0  0  0
    1.1505    1.4512    1.4506 H   0  0  0  0  0  0  0  0  0  0  0  0
   -0.5989    1.5701    1.2818 H   0  0  0  0  0  0  0  0  0  0  0  0
    0.0447    0.2805    2.7618 O   0  0  0  0  0  0  0  0  0  0  0  0
    0.8298   -0.2598    2.9803 H   0  0  0  0  0  0  0  0  0  0  0  0
    1.5085   -1.1004    0.4926 C   0  0  0  0  0  0  0  0  0  0  0  0
    2.4572   -0.7285    1.1765 O   0  0  0  0  0  0  0  0  0  0  0  0
    1.6596   -2.2523   -0.2560 N   0  0  0  0  0  0  0  0  0  0  0  0
    0.7701   -2.7038   -0.4747 H   0  0  0  0  0  0  0  0  0  0  0  0
    2.8185   -3.1254   -0.1115 C   0  0  0  0  0  0  0  0  0  0  0  0
    2.8808   -3.5133    0.9108 H   0  0  0  0  0  0  0  0  0  0  0  0
    2.7396   -3.9721   -0.8001 H   0  0  0  0  0  0  0  0  0  0  0  0
    3.7414   -2.5822   -0.3403 H   0  0  0  0  0  0  0  0  0  0  0  0
  1  2  1  0  0  0  0
  2  3  1  0  0  0  0
  2  4  1  0  0  0  0
  2  5  1  0  0  0  0
  5  6  2  0  0  0  0
  5  7  1  0  0  0  0
  7  8  1  0  0  0  0
  7  9  1  0  0  0  0
  9 10  1  0  0  0  0
  9 11  1  0  0  0  0
  9 16  1  0  0  0  0
 11 12  1  0  0  0  0
 11 13  1  0  0  0  0
 11 14  1  0  0  0  0
 14 15  1  0  0  0  0
 16 17  2  0  0  0  0
 16 18  1  0  0  0  0
 18 19  1  0  0  0  0
 18 20  1  0  0  0  0
 20 21  1  0  0  0  0
 20 22  1  0  0  0  0
 20 23  1  0  0  0  0
M  END
$$$$

  -OEChem-01062216093D

 23 22  0     1  0  0  0  0  0999 V2000
   -3.0284   -3.4228    1.2482 H   0  0  0  0  0  0  0  0  0  0  0  0
   -2.9135   -2.3741    0.9595 C   0  0  0  0  0  0  0  0  0  0  0  0
   -3.2598   -1.7450    1.7834 H   0  0  0  0  0  0  0  0  0  0  0  0
   -3.5295   -2.1822    0.0777 H   0  0  0  0  0  0  0  0  0  0  0  0
   -1.4584   -2.0720    0.6539 C   0  0  0  0  0  0  0  0  0  0  0  0
   -0.6542   -2.9859    0.6470 O   0  0  0  0  0  0  0  0  0  0  0  0
   -1.1026   -0.7809    0.3103 N   0  0  0  0  0  0  0  0  0  0  0  0
   -1.8694   -0.1221    0.4100 H   0  0  0  0  0  0  0  0  0  0  0  0
    0.2503   -0.1700    0.3655 C   0  0  1  0  0  0  0  0  0  0  0  0
    0.4005    0.3511   -0.5839 H   0  0  0  0  0  0  0  0  0  0  0  0
    0.2084    0.8981    1.4733 C   0  0  0  0  0  0  0  0  0  0  0  0
    1.1388    1.4765    1.4754 H   0  0  0  0  0  0  0  0  0  0  0  0
   -0.6108    1.5981    1.2796 H   0  0  0  0  0  0  0  0  0  0  0  0
    0.0171    0.2881    2.7528 O   0  0  0  0  0  0  0  0  0  0  0  0
    0.7900   -0.2814    2.9489 H   0  0  0  0  0  0  0  0  0  0  0  0
    1.5048   -1.0764    0.5129 C   0  0  0  0  0  0  0  0  0  0  0  0
    2.3282   -0.8685    1.4001 O   0  0  0  0  0  0  0  0  0  0  0  0
    1.7868   -2.0330   -0.4450 N   0  0  0  0  0  0  0  0  0  0  0  0
    0.9547   -2.4003   -0.9033 H   0  0  0  0  0  0  0  0  0  0  0  0
    2.9181   -2.9430   -0.3125 C   0  0  0  0  0  0  0  0  0  0  0  0
    2.8316   -3.5303    0.6079 H   0  0  0  0  0  0  0  0  0  0  0  0
    2.9481   -3.6317   -1.1622 H   0  0  0  0  0  0  0  0  0  0  0  0
    3.8602   -2.3854   -0.2887 H   0  0  0  0  0  0  0  0  0  0  0  0
  1  2  1  0  0  0  0
  2  3  1  0  0  0  0
  2  4  1  0  0  0  0
  2  5  1  0  0  0  0
  5  6  2  0  0  0  0
  5  7  1  0  0  0  0
  7  8  1  0  0  0  0
  7  9  1  0  0  0  0
  9 10  1  0  0  0  0
  9 11  1  0  0  0  0
  9 16  1  0  0  0  0
 11 12  1  0  0  0  0
 11 13  1  0  0  0  0
 11 14  1  0  0  0  0
 14 15  1  0  0  0  0
 16 17  2  0  0  0  0
 16 18  1  0  0  0  0
 18 19  1  0  0  0  0
 18 20  1  0  0  0  0
 20 21  1  0  0  0  0
 20 22  1  0  0  0  0
 20 23  1  0  0  0  0
M  END
$$$$

  -OEChem-01062216093D

 23 22  0     1  0  0  0  0  0999 V2000
   -2.9306   -3.4612    1.2535 H   0  0  0  0  0  0  0  0  0  0  0  0
   -2.8423   -2.4022    0.9943 C   0  0  0  0  0  0  0  0  0  0  0  0
   -3.1535   -1.8043    1.8546 H   0  0  0  0  0  0  0  0  0  0  0  0
   -3.5038   -2.1898    0.1511 H   0  0  0  0  0  0  0  0  0  0  0  0
   -1.4080   -2.0712    0.6276 C   0  0  0  0  0  0  0  0  0  0  0  0
   -0.5891   -2.9704    0.5624 O   0  0  0  0  0  0  0  0  0  0  0  0
   -1.0885   -0.7713    0.2809 N   0  0  0  0  0  0  0  0  0  0  0  0
   -1.8620   -0.1282    0.4225 H   0  0  0  0  0  0  0  0  0  0  0  0
    0.2553   -0.1472    0.3568 C   0  0  1  0  0  0  0  0  0  0  0  0
    0.4181    0.3779   -0.5883 H   0  0  0  0  0  0  0  0  0  0  0  0
    0.1947    0.9179    1.4656 C   0  0  0  0  0  0  0  0  0  0  0  0
    1.1266    1.4934    1.4795 H   0  0  0  0  0  0  0  0  0  0  0  0
   -0.6221    1.6186    1.2655 H   0  0  0  0  0  0  0  0  0  0  0  0
   -0.0064    0.3028    2.7406 O   0  0  0  0  0  0  0  0  0  0  0  0
    0.7415   -0.3110    2.9098 H   0  0  0  0  0  0  0  0  0  0  0  0
    1.5003   -1.0599    0.5263 C   0  0  0  0  0  0  0  0  0  0  0  0
    2.1714   -1.0284    1.5552 O   0  0  0  0  0  0  0  0  0  0  0  0
    1.9619   -1.7895   -0.5540 N   0  0  0  0  0  0  0  0  0  0  0  0
    1.2546   -1.9988   -1.2532 H   0  0  0  0  0  0  0  0  0  0  0  0
    3.0736   -2.7243   -0.4297 C   0  0  0  0  0  0  0  0  0  0  0  0
    2.8288   -3.5152    0.2873 H   0  0  0  0  0  0  0  0  0  0  0  0
    3.2880   -3.1868   -1.3978 H   0  0  0  0  0  0  0  0  0  0  0  0
    3.9768   -2.2069   -0.0895 H   0  0  0  0  0  0  0  0  0  0  0  0
  1  2  1  0  0  0  0
  2  3  1  0  0  0  0
  2  4  1  0  0  0  0
  2  5  1  0  0  0  0
  5  6  2  0  0  0  0
  5  7  1  0  0  0  0
  7  8  1  0  0  0  0
  7  9  1  0  0  0  0
  9 10  1  0  0  0  0
  9 11  1  0  0  0  0
  9 16  1  0  0  0  0
 11 12  1  0  0  0  0
 11 13  1  0  0  0  0
 11 14  1  0  0  0  0
 14 15  1  0  0  0  0
 16 17  2  0  0  0  0
 16 18  1  0  0  0  0
 18 19  1  0  0  0  0
 18 20  1  0  0  0  0
 20 21  1  0  0  0  0
 20 22  1  0  0  0  0
 20 23  1  0  0  0  0
M  END
$$$$

  -OEChem-01062216093D

 23 22  0     1  0  0  0  0  0999 V2000
   -2.8912   -3.4680    1.2817 H   0  0  0  0  0  0  0  0  0  0  0  0
   -2.8145   -2.4083    1.0221 C   0  0  0  0  0  0  0  0  0  0  0  0
   -3.0980   -1.8131    1.8938 H   0  0  0  0  0  0  0  0  0  0  0  0
   -3.5041   -2.1957    0.2017 H   0  0  0  0  0  0  0  0  0  0  0  0
   -1.3941   -2.0725    0.6085 C   0  0  0  0  0  0  0  0  0  0  0  0
   -0.5789   -2.9706    0.4949 O   0  0  0  0  0  0  0  0  0  0  0  0
   -1.0868   -0.7705    0.2588 N   0  0  0  0  0  0  0  0  0  0  0  0
   -1.8589   -0.1323    0.4266 H   0  0  0  0  0  0  0  0  0  0  0  0
    0.2556   -0.1480    0.3494 C   0  0  1  0  0  0  0  0  0  0  0  0
    0.4278    0.3795   -0.5925 H   0  0  0  0  0  0  0  0  0  0  0  0
    0.1857    0.9166    1.4577 C   0  0  0  0  0  0  0  0  0  0  0  0
    1.1221    1.4844    1.4814 H   0  0  0  0  0  0  0  0  0  0  0  0
   -0.6242    1.6230    1.2490 H   0  0  0  0  0  0  0  0  0  0  0  0
   -0.0300    0.3022    2.7308 O   0  0  0  0  0  0  0  0  0  0  0  0
    0.6850   -0.3567    2.8812 H   0  0  0  0  0  0  0  0  0  0  0  0
    1.4949   -1.0646    0.5362 C   0  0  0  0  0  0  0  0  0  0  0  0
    2.0144   -1.2019    1.6417 O   0  0  0  0  0  0  0  0  0  0  0  0
    2.1557   -1.5515   -0.5773 N   0  0  0  0  0  0  0  0  0  0  0  0
    1.6038   -1.5911   -1.4290 H   0  0  0  0  0  0  0  0  0  0  0  0
    3.2917   -2.4584   -0.4654 C   0  0  0  0  0  0  0  0  0  0  0  0
    2.9971   -3.3777    0.0522 H   0  0  0  0  0  0  0  0  0  0  0  0
    3.6626   -2.7234   -1.4600 H   0  0  0  0  0  0  0  0  0  0  0  0
    4.1086   -1.9866    0.0909 H   0  0  0  0  0  0  0  0  0  0  0  0
  1  2  1  0  0  0  0
  2  3  1  0  0  0  0
  2  4  1  0  0  0  0
  2  5  1  0  0  0  0
  5  6  2  0  0  0  0
  5  7  1  0  0  0  0
  7  8  1  0  0  0  0
  7  9  1  0  0  0  0
  9 10  1  0  0  0  0
  9 11  1  0  0  0  0
  9 16  1  0  0  0  0
 11 12  1  0  0  0  0
 11 13  1  0  0  0  0
 11 14  1  0  0  0  0
 14 15  1  0  0  0  0
 16 17  2  0  0  0  0
 16 18  1  0  0  0  0
 18 19  1  0  0  0  0
 18 20  1  0  0  0  0
 20 21  1  0  0  0  0
 20 22  1  0  0  0  0
 20 23  1  0  0  0  0
M  END
$$$$

  -OEChem-01062216093D

 23 22  0     1  0  0  0  0  0999 V2000
   -2.8640   -3.4560    1.3463 H   0  0  0  0  0  0  0  0  0  0  0  0
   -2.8026   -2.4038    1.0543 C   0  0  0  0  0  0  0  0  0  0  0  0
   -3.0608   -1.7860    1.9180 H   0  0  0  0  0  0  0  0  0  0  0  0
   -3.5195   -2.2178    0.2511 H   0  0  0  0  0  0  0  0  0  0  0  0
   -1.3983   -2.0741    0.5848 C   0  0  0  0  0  0  0  0  0  0  0  0
   -0.6011   -2.9780    0.4063 O   0  0  0  0  0  0  0  0  0  0  0  0
   -1.0925   -0.7722    0.2341 N   0  0  0  0  0  0  0  0  0  0  0  0
   -1.8568   -0.1332    0.4319 H   0  0  0  0  0  0  0  0  0  0  0  0
    0.2531   -0.1595    0.3353 C   0  0  1  0  0  0  0  0  0  0  0  0
    0.4302    0.3702   -0.6046 H   0  0  0  0  0  0  0  0  0  0  0  0
    0.1873    0.9009    1.4471 C   0  0  0  0  0  0  0  0  0  0  0  0
    1.1302    1.4574    1.4776 H   0  0  0  0  0  0  0  0  0  0  0  0
   -0.6137    1.6172    1.2383 H   0  0  0  0  0  0  0  0  0  0  0  0
   -0.0395    0.2839    2.7171 O   0  0  0  0  0  0  0  0  0  0  0  0
    0.6355   -0.4219    2.8454 H   0  0  0  0  0  0  0  0  0  0  0  0
    1.4884   -1.0793    0.5328 C   0  0  0  0  0  0  0  0  0  0  0  0
    1.8637   -1.3803    1.6641 O   0  0  0  0  0  0  0  0  0  0  0  0
    2.3411   -1.3197   -0.5303 N   0  0  0  0  0  0  0  0  0  0  0  0
    1.9488   -1.1864   -1.4573 H   0  0  0  0  0  0  0  0  0  0  0  0
    3.5196   -2.1693   -0.4036 C   0  0  0  0  0  0  0  0  0  0  0  0
    3.2315   -3.1782   -0.0893 H   0  0  0  0  0  0  0  0  0  0  0  0
    4.0400   -2.2401   -1.3635 H   0  0  0  0  0  0  0  0  0  0  0  0
    4.2149   -1.7552    0.3343 H   0  0  0  0  0  0  0  0  0  0  0  0
  1  2  1  0  0  0  0
  2  3  1  0  0  0  0
  2  4  1  0  0  0  0
  2  5  1  0  0  0  0
  5  6  2  0  0  0  0
  5  7  1  0  0  0  0
  7  8  1  0  0  0  0
  7  9  1  0  0  0  0
  9 10  1  0  0  0  0
  9 11  1  0  0  0  0
  9 16  1  0  0  0  0
 11 12  1  0  0  0  0
 11 13  1  0  0  0  0
 11 14  1  0  0  0  0
 14 15  1  0  0  0  0
 16 17  2  0  0  0  0
 16 18  1  0  0  0  0
 18 19  1  0  0  0  0
 18 20  1  0  0  0  0
 20 21  1  0  0  0  0
 20 22  1  0  0  0  0
 20 23  1  0  0  0  0
M  END
$$$$

  -OEChem-01062216093D

 23 22  0     1  0  0  0  0  0999 V2000
   -2.8780   -3.4558    1.3220 H   0  0  0  0  0  0  0  0  0  0  0  0
   -2.7909   -2.3878    1.1030 C   0  0  0  0  0  0  0  0  0  0  0  0
   -2.9608   -1.8263    2.0251 H   0  0  0  0  0  0  0  0  0  0  0  0
   -3.5532   -2.1146    0.3697 H   0  0  0  0  0  0  0  0  0  0  0  0
   -1.4090   -2.0783    0.5591 C   0  0  0  0  0  0  0  0  0  0  0  0
   -0.6435   -2.9932    0.3111 O   0  0  0  0  0  0  0  0  0  0  0  0
   -1.0989   -0.7811    0.1974 N   0  0  0  0  0  0  0  0  0  0  0  0
   -1.8524   -0.1377    0.4202 H   0  0  0  0  0  0  0  0  0  0  0  0
    0.2518   -0.1816    0.3038 C   0  0  1  0  0  0  0  0  0  0  0  0
    0.4351    0.3428   -0.6374 H   0  0  0  0  0  0  0  0  0  0  0  0
    0.1922    0.8777    1.4163 C   0  0  0  0  0  0  0  0  0  0  0  0
    1.1410    1.4236    1.4518 H   0  0  0  0  0  0  0  0  0  0  0  0
   -0.6004    1.6031    1.2064 H   0  0  0  0  0  0  0  0  0  0  0  0
   -0.0451    0.2592    2.6839 O   0  0  0  0  0  0  0  0  0  0  0  0
    0.5942   -0.4823    2.7968 H   0  0  0  0  0  0  0  0  0  0  0  0
    1.4834   -1.1021    0.5192 C   0  0  0  0  0  0  0  0  0  0  0  0
    1.7301   -1.5433    1.6398 O   0  0  0  0  0  0  0  0  0  0  0  0
    2.5028   -1.1121   -0.4175 N   0  0  0  0  0  0  0  0  0  0  0  0
    2.2596   -0.8175   -1.3581 H   0  0  0  0  0  0  0  0  0  0  0  0
    3.7268   -1.8840   -0.2342 C   0  0  0  0  0  0  0  0  0  0  0  0
    3.4952   -2.9494   -0.1286 H   0  0  0  0  0  0  0  0  0  0  0  0
    4.3875   -1.7562   -1.0971 H   0  0  0  0  0  0  0  0  0  0  0  0
    4.2624   -1.5494    0.6606 H   0  0  0  0  0  0  0  0  0  0  0  0
  1  2  1  0  0  0  0
  2  3  1  0  0  0  0
  2  4  1  0  0  0  0
  2  5  1  0  0  0  0
  5  6  2  0  0  0  0
  5  7  1  0  0  0  0
  7  8  1  0  0  0  0
  7  9  1  0  0  0  0
  9 10  1  0  0  0  0
  9 11  1  0  0  0  0
  9 16  1  0  0  0  0
 11 12  1  0  0  0  0
 11 13  1  0  0  0  0
 11 14  1  0  0  0  0
 14 15  1  0  0  0  0
 16 17  2  0  0  0  0
 16 18  1  0  0  0  0
 18 19  1  0  0  0  0
 18 20  1  0  0  0  0
 20 21  1  0  0  0  0
 20 22  1  0  0  0  0
 20 23  1  0  0  0  0
M  END
$$$$

  -OEChem-01062216093D

 23 22  0     1  0  0  0  0  0999 V2000
   -2.6917   -3.5332    1.2714 H   0  0  0  0  0  0  0  0  0  0  0  0
   -2.6300   -2.4484    1.1474 C   0  0  0  0  0  0  0  0  0  0  0  0
   -2.5745   -1.9863    2.1362 H   0  0  0  0  0  0  0  0  0  0  0  0
   -3.5286   -2.0977    0.6350 H   0  0  0  0  0  0  0  0  0  0  0  0
   -1.3956   -2.0878    0.3436 C   0  0  0  0  0  0  0  0  0  0  0  0
   -0.7966   -2.9526   -0.2740 O   0  0  0  0  0  0  0  0  0  0  0  0
   -1.0980   -0.7638    0.0931 N   0  0  0  0  0  0  0  0  0  0  0  0
   -1.8074   -0.1625    0.4986 H   0  0  0  0  0  0  0  0  0  0  0  0
    0.2666   -0.2315    0.2988 C   0  0  1  0  0  0  0  0  0  0  0  0
    0.4955    0.3198   -0.6165 H   0  0  0  0  0  0  0  0  0  0  0  0
    0.2075    0.8087    1.4286 C   0  0  0  0  0  0  0  0  0  0  0  0
    1.1861    1.2924    1.5166 H   0  0  0  0  0  0  0  0  0  0  0  0
   -0.5248    1.5849    1.1836 H   0  0  0  0  0  0  0  0  0  0  0  0
   -0.1323    0.2106    2.6831 O   0  0  0  0  0  0  0  0  0  0  0  0
    0.0989    0.7910    3.4288 H   0  0  0  0  0  0  0  0  0  0  0  0
    1.4690   -1.1999    0.4734 C   0  0  0  0  0  0  0  0  0  0  0  0
    1.5292   -1.9917    1.4068 O   0  0  0  0  0  0  0  0  0  0  0  0
    2.6423   -0.9462   -0.2204 N   0  0  0  0  0  0  0  0  0  0  0  0
    2.5755   -0.3445   -1.0346 H   0  0  0  0  0  0  0  0  0  0  0  0
    3.8463   -1.7529   -0.0537 C   0  0  0  0  0  0  0  0  0  0  0  0
    3.6446   -2.7987   -0.3090 H   0  0  0  0  0  0  0  0  0  0  0  0
    4.6430   -1.3835   -0.7066 H   0  0  0  0  0  0  0  0  0  0  0  0
    4.2007   -1.7050    0.9815 H   0  0  0  0  0  0  0  0  0  0  0  0
  1  2  1  0  0  0  0
  2  3  1  0  0  0  0
  2  4  1  0  0  0  0
  2  5  1  0  0  0  0
  5  6  2  0  0  0  0
  5  7  1  0  0  0  0
  7  8  1  0  0  0  0
  7  9  1  0  0  0  0
  9 10  1  0  0  0  0
  9 11  1  0  0  0  0
  9 16  1  0  0  0  0
 11 12  1  0  0  0  0
 11 13  1  0  0  0  0
 11 14  1  0  0  0  0
 14 15  1  0  0  0  0
 16 17  2  0  0  0  0
 16 18  1  0  0  0  0
 18 19  1  0  0  0  0
 18 20  1  0  0  0  0
 20 21  1  0  0  0  0
 20 22  1  0  0  0  0
 20 23  1  0  0  0  0
M  END
$$$$

  -OEChem-01062216093D

 23 22  0     1  0  0  0  0  0999 V2000
   -2.6549   -3.5245    1.3114 H   0  0  0  0  0  0  0  0  0  0  0  0
   -2.5769   -2.4393    1.2018 C   0  0  0  0  0  0  0  0  0  0  0  0
   -2.4306   -1.9978    2.1908 H   0  0  0  0  0  0  0  0  0  0  0  0
   -3.5043   -2.0578    0.7692 H   0  0  0  0  0  0  0  0  0  0  0  0
   -1.4018   -2.0932    0.3081 C   0  0  0  0  0  0  0  0  0  0  0  0
   -0.8887   -2.9541   -0.3874 O   0  0  0  0  0  0  0  0  0  0  0  0
   -1.0949   -0.7746    0.0451 N   0  0  0  0  0  0  0  0  0  0  0  0
   -1.7952   -0.1705    0.4615 H   0  0  0  0  0  0  0  0  0  0  0  0
    0.2720   -0.2478    0.2563 C   0  0  1  0  0  0  0  0  0  0  0  0
    0.5096    0.2949   -0.6621 H   0  0  0  0  0  0  0  0  0  0  0  0
    0.2081    0.7916    1.3859 C   0  0  0  0  0  0  0  0  0  0  0  0
    1.1841    1.2790    1.4814 H   0  0  0  0  0  0  0  0  0  0  0  0
   -0.5250    1.5656    1.1373 H   0  0  0  0  0  0  0  0  0  0  0  0
   -0.1402    0.1879    2.6352 O   0  0  0  0  0  0  0  0  0  0  0  0
    0.0217    0.7922    3.3804 H   0  0  0  0  0  0  0  0  0  0  0  0
    1.4786   -1.2067    0.4545 C   0  0  0  0  0  0  0  0  0  0  0  0
    1.4471   -2.1439    1.2425 O   0  0  0  0  0  0  0  0  0  0  0  0
    2.7315   -0.7928    0.0279 N   0  0  0  0  0  0  0  0  0  0  0  0
    2.7686   -0.0278   -0.6373 H   0  0  0  0  0  0  0  0  0  0  0  0
    3.9472   -1.5614    0.2731 C   0  0  0  0  0  0  0  0  0  0  0  0
    3.8637   -2.5606   -0.1674 H   0  0  0  0  0  0  0  0  0  0  0  0
    4.8102   -1.0575   -0.1722 H   0  0  0  0  0  0  0  0  0  0  0  0
    4.1260   -1.6648    1.3486 H   0  0  0  0  0  0  0  0  0  0  0  0
  1  2  1  0  0  0  0
  2  3  1  0  0  0  0
  2  4  1  0  0  0  0
  2  5  1  0  0  0  0
  5  6  2  0  0  0  0
  5  7  1  0  0  0  0
  7  8  1  0  0  0  0
  7  9  1  0  0  0  0
  9 10  1  0  0  0  0
  9 11  1  0  0  0  0
  9 16  1  0  0  0  0
 11 12  1  0  0  0  0
 11 13  1  0  0  0  0
 11 14  1  0  0  0  0
 14 15  1  0  0  0  0
 16 17  2  0  0  0  0
 16 18  1  0  0  0  0
 18 19  1  0  0  0  0
 18 20  1  0  0  0  0
 20 21  1  0  0  0  0
 20 22  1  0  0  0  0
 20 23  1  0  0  0  0
M  END
$$$$

  -OEChem-01062216093D

 23 22  0     1  0  0  0  0  0999 V2000
   -2.8356   -3.6644    1.0059 H   0  0  0  0  0  0  0  0  0  0  0  0
   -2.7011   -2.6729    0.5642 C   0  0  0  0  0  0  0  0  0  0  0  0
   -3.5951   -2.0756    0.7574 H   0  0  0  0  0  0  0  0  0  0  0  0
   -2.5684   -2.7868   -0.5141 H   0  0  0  0  0  0  0  0  0  0  0  0
   -1.4836   -1.9974    1.1676 C   0  0  0  0  0  0  0  0  0  0  0  0
   -0.9847   -2.4759    2.1706 O   0  0  0  0  0  0  0  0  0  0  0  0
   -1.1202   -0.7413    0.7143 N   0  0  0  0  0  0  0  0  0  0  0  0
   -1.7477   -0.3981   -0.0033 H   0  0  0  0  0  0  0  0  0  0  0  0
    0.2682   -0.2148    0.6273 C   0  0  1  0  0  0  0  0  0  0  0  0
    0.3526    0.2338   -0.3657 H   0  0  0  0  0  0  0  0  0  0  0  0
    0.4418    0.9212    1.6518 C   0  0  0  0  0  0  0  0  0  0  0  0
    1.4069    1.4169    1.5073 H   0  0  0  0  0  0  0  0  0  0  0  0
   -0.3391    1.6703    1.4855 H   0  0  0  0  0  0  0  0  0  0  0  0
    0.3494    0.4466    2.9958 O   0  0  0  0  0  0  0  0  0  0  0  0
    0.3189    1.1755    3.6374 H   0  0  0  0  0  0  0  0  0  0  0  0
    1.4916   -1.1716    0.7148 C   0  0  0  0  0  0  0  0  0  0  0  0
    1.3831   -2.3826    0.5710 O   0  0  0  0  0  0  0  0  0  0  0  0
    2.7225   -0.6650    0.3195 N   0  0  0  0  0  0  0  0  0  0  0  0
    2.8507    0.3379    0.3980 H   0  0  0  0  0  0  0  0  0  0  0  0
    3.9065   -1.4956    0.1196 C   0  0  0  0  0  0  0  0  0  0  0  0
    3.7508   -2.1936   -0.7098 H   0  0  0  0  0  0  0  0  0  0  0  0
    4.7723   -0.8694   -0.1159 H   0  0  0  0  0  0  0  0  0  0  0  0
    4.1301   -2.0690    1.0257 H   0  0  0  0  0  0  0  0  0  0  0  0
  1  2  1  0  0  0  0
  2  3  1  0  0  0  0
  2  4  1  0  0  0  0
  2  5  1  0  0  0  0
  5  6  2  0  0  0  0
  5  7  1  0  0  0  0
  7  8  1  0  0  0  0
  7  9  1  0  0  0  0
  9 10  1  0  0  0  0
  9 11  1  0  0  0  0
  9 16  1  0  0  0  0
 11 12  1  0  0  0  0
 11 13  1  0  0  0  0
 11 14  1  0  0  0  0
 14 15  1  0  0  0  0
 16 17  2  0  0  0  0
 16 18  1  0  0  0  0
 18 19  1  0  0  0  0
 18 20  1  0  0  0  0
 20 21  1  0  0  0  0
 20 22  1  0  0  0  0
 20 23  1  0  0  0  0
M  END
$$$$

  -OEChem-01062216093D

 23 22  0     1  0  0  0  0  0999 V2000
   -2.7692   -3.6840    1.0547 H   0  0  0  0  0  0  0  0  0  0  0  0
   -2.6811   -2.6792    0.6322 C   0  0  0  0  0  0  0  0  0  0  0  0
   -3.5279   -2.0785    0.9719 H   0  0  0  0  0  0  0  0  0  0  0  0
   -2.7060   -2.7553   -0.4573 H   0  0  0  0  0  0  0  0  0  0  0  0
   -1.3780   -2.0406    1.0756 C   0  0  0  0  0  0  0  0  0  0  0  0
   -0.6699   -2.6371    1.8688 O   0  0  0  0  0  0  0  0  0  0  0  0
   -1.0887   -0.7519    0.6572 N   0  0  0  0  0  0  0  0  0  0  0  0
   -1.7662   -0.3807    0.0012 H   0  0  0  0  0  0  0  0  0  0  0  0
    0.2755   -0.1703    0.5824 C   0  0  1  0  0  0  0  0  0  0  0  0
    0.2709    0.5103   -0.2727 H   0  0  0  0  0  0  0  0  0  0  0  0
    0.5679    0.6926    1.8250 C   0  0  0  0  0  0  0  0  0  0  0  0
    1.5076    1.2378    1.6938 H   0  0  0  0  0  0  0  0  0  0  0  0
   -0.2284    1.4371    1.9258 H   0  0  0  0  0  0  0  0  0  0  0  0
    0.6295   -0.0772    3.0259 O   0  0  0  0  0  0  0  0  0  0  0  0
    0.6424    0.4858    3.8177 H   0  0  0  0  0  0  0  0  0  0  0  0
    1.4469   -1.1456    0.2863 C   0  0  0  0  0  0  0  0  0  0  0  0
    1.2409   -2.1576   -0.3765 O   0  0  0  0  0  0  0  0  0  0  0  0
    2.7381   -0.6438    0.2152 N   0  0  0  0  0  0  0  0  0  0  0  0
    2.9359    0.1588    0.8034 H   0  0  0  0  0  0  0  0  0  0  0  0
    3.8682   -1.4362   -0.2589 C   0  0  0  0  0  0  0  0  0  0  0  0
    3.7415   -1.6902   -1.3165 H   0  0  0  0  0  0  0  0  0  0  0  0
    4.7987   -0.8708   -0.1505 H   0  0  0  0  0  0  0  0  0  0  0  0
    3.9560   -2.3629    0.3182 H   0  0  0  0  0  0  0  0  0  0  0  0
  1  2  1  0  0  0  0
  2  3  1  0  0  0  0
  2  4  1  0  0  0  0
  2  5  1  0  0  0  0
  5  6  2  0  0  0  0
  5  7  1  0  0  0  0
  7  8  1  0  0  0  0
  7  9  1  0  0  0  0
  9 10  1  0  0  0  0
  9 11  1  0  0  0  0
  9 16  1  0  0  0  0
 11 12  1  0  0  0  0
 11 13  1  0  0  0  0
 11 14  1  0  0  0  0
 14 15  1  0  0  0  0
 16 17  2  0  0  0  0
 16 18  1  0  0  0  0
 18 19  1  0  0  0  0
 18 20  1  0  0  0  0
 20 21  1  0  0  0  0
 20 22  1  0  0  0  0
 20 23  1  0  0  0  0
M  END
$$$$

  -OEChem-01062216093D

 23 22  0     1  0  0  0  0  0999 V2000
   -2.7422   -3.6886    1.0755 H   0  0  0  0  0  0  0  0  0  0  0  0
   -2.6697   -2.6819    0.6540 C   0  0  0  0  0  0  0  0  0  0  0  0
   -3.5025   -2.0823    1.0286 H   0  0  0  0  0  0  0  0  0  0  0  0
   -2.7365   -2.7528   -0.4342 H   0  0  0  0  0  0  0  0  0  0  0  0
   -1.3507   -2.0450    1.0498 C   0  0  0  0  0  0  0  0  0  0  0  0
   -0.5962   -2.6599    1.7844 O   0  0  0  0  0  0  0  0  0  0  0  0
   -1.0853   -0.7479    0.6419 N   0  0  0  0  0  0  0  0  0  0  0  0
   -1.7798   -0.3678    0.0091 H   0  0  0  0  0  0  0  0  0  0  0  0
    0.2682   -0.1436    0.5733 C   0  0  1  0  0  0  0  0  0  0  0  0
    0.2626    0.5408   -0.2788 H   0  0  0  0  0  0  0  0  0  0  0  0
    0.5454    0.7174    1.8209 C   0  0  0  0  0  0  0  0  0  0  0  0
    1.4751    1.2807    1.6924 H   0  0  0  0  0  0  0  0  0  0  0  0
   -0.2639    1.4474    1.9247 H   0  0  0  0  0  0  0  0  0  0  0  0
    0.6184   -0.0587    3.0178 O   0  0  0  0  0  0  0  0  0  0  0  0
    0.5918    0.4997    3.8129 H   0  0  0  0  0  0  0  0  0  0  0  0
    1.4337   -1.1218    0.2705 C   0  0  0  0  0  0  0  0  0  0  0  0
    1.2578   -2.0014   -0.5678 O   0  0  0  0  0  0  0  0  0  0  0  0
    2.7458   -0.7356    0.4940 N   0  0  0  0  0  0  0  0  0  0  0  0
    2.8800   -0.1040    1.2776 H   0  0  0  0  0  0  0  0  0  0  0  0
    3.8802   -1.5559    0.0838 C   0  0  0  0  0  0  0  0  0  0  0  0
    3.9065   -1.6573   -1.0062 H   0  0  0  0  0  0  0  0  0  0  0  0
    4.8174   -1.0940    0.4082 H   0  0  0  0  0  0  0  0  0  0  0  0
    3.8122   -2.5542    0.5291 H   0  0  0  0  0  0  0  0  0  0  0  0
  1  2  1  0  0  0  0
  2  3  1  0  0  0  0
  2  4  1  0  0  0  0
  2  5  1  0  0  0  0
  5  6  2  0  0  0  0
  5  7  1  0  0  0  0
  7  8  1  0  0  0  0
  7  9  1  0  0  0  0
  9 10  1  0  0  0  0
  9 11  1  0  0  0  0
  9 16  1  0  0  0  0
 11 12  1  0  0  0  0
 11 13  1  0  0  0  0
 11 14  1  0  0  0  0
 14 15  1  0  0  0  0
 16 17  2  0  0  0  0
 16 18  1  0  0  0  0
 18 19  1  0  0  0  0
 18 20  1  0  0  0  0
 20 21  1  0  0  0  0
 20 22  1  0  0  0  0
 20 23  1  0  0  0  0
M  END
$$$$

  -OEChem-01062216093D

 23 22  0     1  0  0  0  0  0999 V2000
   -2.7154   -3.7020    1.0562 H   0  0  0  0  0  0  0  0  0  0  0  0
   -2.6654   -2.6816    0.6658 C   0  0  0  0  0  0  0  0  0  0  0  0
   -3.4841   -2.1001    1.0957 H   0  0  0  0  0  0  0  0  0  0  0  0
   -2.7787   -2.7165   -0.4203 H   0  0  0  0  0  0  0  0  0  0  0  0
   -1.3335   -2.0501    1.0256 C   0  0  0  0  0  0  0  0  0  0  0  0
   -0.5461   -2.6825    1.7093 O   0  0  0  0  0  0  0  0  0  0  0  0
   -1.0816   -0.7478    0.6273 N   0  0  0  0  0  0  0  0  0  0  0  0
   -1.7937   -0.3521    0.0238 H   0  0  0  0  0  0  0  0  0  0  0  0
    0.2634   -0.1260    0.5649 C   0  0  1  0  0  0  0  0  0  0  0  0
    0.2542    0.5603   -0.2858 H   0  0  0  0  0  0  0  0  0  0  0  0
    0.5340    0.7362    1.8129 C   0  0  0  0  0  0  0  0  0  0  0  0
    1.4585    1.3079    1.6815 H   0  0  0  0  0  0  0  0  0  0  0  0
   -0.2816    1.4586    1.9190 H   0  0  0  0  0  0  0  0  0  0  0  0
    0.6171   -0.0405    3.0097 O   0  0  0  0  0  0  0  0  0  0  0  0
    0.5748    0.5191    3.8036 H   0  0  0  0  0  0  0  0  0  0  0  0
    1.4275   -1.1022    0.2578 C   0  0  0  0  0  0  0  0  0  0  0  0
    1.3158   -1.8487   -0.7103 O   0  0  0  0  0  0  0  0  0  0  0  0
    2.7008   -0.8714    0.7499 N   0  0  0  0  0  0  0  0  0  0  0  0
    2.7169   -0.4103    1.6562 H   0  0  0  0  0  0  0  0  0  0  0  0
    3.8280   -1.7318    0.4114 C   0  0  0  0  0  0  0  0  0  0  0  0
    4.0234   -1.7041   -0.6658 H   0  0  0  0  0  0  0  0  0  0  0  0
    4.7291   -1.3948    0.9326 H   0  0  0  0  0  0  0  0  0  0  0  0
    3.6219   -2.7664    0.7057 H   0  0  0  0  0  0  0  0  0  0  0  0
  1  2  1  0  0  0  0
  2  3  1  0  0  0  0
  2  4  1  0  0  0  0
  2  5  1  0  0  0  0
  5  6  2  0  0  0  0
  5  7  1  0  0  0  0
  7  8  1  0  0  0  0
  7  9  1  0  0  0  0
  9 10  1  0  0  0  0
  9 11  1  0  0  0  0
  9 16  1  0  0  0  0
 11 12  1  0  0  0  0
 11 13  1  0  0  0  0
 11 14  1  0  0  0  0
 14 15  1  0  0  0  0
 16 17  2  0  0  0  0
 16 18  1  0  0  0  0
 18 19  1  0  0  0  0
 18 20  1  0  0  0  0
 20 21  1  0  0  0  0
 20 22  1  0  0  0  0
 20 23  1  0  0  0  0
M  END
$$$$

  -OEChem-01062216093D

 23 22  0     1  0  0  0  0  0999 V2000
   -2.6883   -3.7197    1.0010 H   0  0  0  0  0  0  0  0  0  0  0  0
   -2.6700   -2.6736    0.6827 C   0  0  0  0  0  0  0  0  0  0  0  0
   -3.4580   -2.1311    1.2100 H   0  0  0  0  0  0  0  0  0  0  0  0
   -2.8603   -2.6318   -0.3923 H   0  0  0  0  0  0  0  0  0  0  0  0
   -1.3188   -2.0579    0.9940 C   0  0  0  0  0  0  0  0  0  0  0  0
   -0.5061   -2.7092    1.6286 O   0  0  0  0  0  0  0  0  0  0  0  0
   -1.0722   -0.7528    0.6027 N   0  0  0  0  0  0  0  0  0  0  0  0
   -1.8019   -0.3359    0.0354 H   0  0  0  0  0  0  0  0  0  0  0  0
    0.2658   -0.1177    0.5489 C   0  0  1  0  0  0  0  0  0  0  0  0
    0.2550    0.5714   -0.2998 H   0  0  0  0  0  0  0  0  0  0  0  0
    0.5208    0.7426    1.8021 C   0  0  0  0  0  0  0  0  0  0  0  0
    1.4438    1.3181    1.6753 H   0  0  0  0  0  0  0  0  0  0  0  0
   -0.2995    1.4604    1.9053 H   0  0  0  0  0  0  0  0  0  0  0  0
    0.6057   -0.0369    2.9991 O   0  0  0  0  0  0  0  0  0  0  0  0
    0.5626    0.5236    3.7930 H   0  0  0  0  0  0  0  0  0  0  0  0
    1.4370   -1.0844    0.2444 C   0  0  0  0  0  0  0  0  0  0  0  0
    1.4206   -1.6960   -0.8193 O   0  0  0  0  0  0  0  0  0  0  0  0
    2.6161   -1.0383    0.9661 N   0  0  0  0  0  0  0  0  0  0  0  0
    2.4905   -0.7161    1.9245 H   0  0  0  0  0  0  0  0  0  0  0  0
    3.7174   -1.9548    0.6999 C   0  0  0  0  0  0  0  0  0  0  0  0
    4.0941   -1.8182   -0.3191 H   0  0  0  0  0  0  0  0  0  0  0  0
    4.5394   -1.7691    1.3975 H   0  0  0  0  0  0  0  0  0  0  0  0
    3.3877   -2.9927    0.8177 H   0  0  0  0  0  0  0  0  0  0  0  0
  1  2  1  0  0  0  0
  2  3  1  0  0  0  0
  2  4  1  0  0  0  0
  2  5  1  0  0  0  0
  5  6  2  0  0  0  0
  5  7  1  0  0  0  0
  7  8  1  0  0  0  0
  7  9  1  0  0  0  0
  9 10  1  0  0  0  0
  9 11  1  0  0  0  0
  9 16  1  0  0  0  0
 11 12  1  0  0  0  0
 11 13  1  0  0  0  0
 11 14  1  0  0  0  0
 14 15  1  0  0  0  0
 16 17  2  0  0  0  0
 16 18  1  0  0  0  0
 18 19  1  0  0  0  0
 18 20  1  0  0  0  0
 20 21  1  0  0  0  0
 20 22  1  0  0  0  0
 20 23  1  0  0  0  0
M  END
$$$$

  -OEChem-01062216093D

 23 22  0     1  0  0  0  0  0999 V2000
   -2.7022   -3.7101    1.0108 H   0  0  0  0  0  0  0  0  0  0  0  0
   -2.6781   -2.6637    0.6934 C   0  0  0  0  0  0  0  0  0  0  0  0
   -3.4419   -2.1106    1.2450 H   0  0  0  0  0  0  0  0  0  0  0  0
   -2.9006   -2.6167   -0.3753 H   0  0  0  0  0  0  0  0  0  0  0  0
   -1.3095   -2.0678    0.9653 C   0  0  0  0  0  0  0  0  0  0  0  0
   -0.4793   -2.7394    1.5544 O   0  0  0  0  0  0  0  0  0  0  0  0
   -1.0617   -0.7608    0.5825 N   0  0  0  0  0  0  0  0  0  0  0  0
   -1.8080   -0.3183    0.0574 H   0  0  0  0  0  0  0  0  0  0  0  0
    0.2717   -0.1164    0.5389 C   0  0  1  0  0  0  0  0  0  0  0  0
    0.2592    0.5780   -0.3057 H   0  0  0  0  0  0  0  0  0  0  0  0
    0.5047    0.7388    1.8001 C   0  0  0  0  0  0  0  0  0  0  0  0
    1.4274    1.3168    1.6837 H   0  0  0  0  0  0  0  0  0  0  0  0
   -0.3196    1.4527    1.8973 H   0  0  0  0  0  0  0  0  0  0  0  0
    0.5837   -0.0432    2.9979 O   0  0  0  0  0  0  0  0  0  0  0  0
    0.5705    0.5221    3.7898 H   0  0  0  0  0  0  0  0  0  0  0  0
    1.4555   -1.0672    0.2378 C   0  0  0  0  0  0  0  0  0  0  0  0
    1.5536   -1.5332   -0.8926 O   0  0  0  0  0  0  0  0  0  0  0  0
    2.4970   -1.2333    1.1311 N   0  0  0  0  0  0  0  0  0  0  0  0
    2.2336   -1.0271    2.0950 H   0  0  0  0  0  0  0  0  0  0  0  0
    3.5539   -2.2106    0.9090 C   0  0  0  0  0  0  0  0  0  0  0  0
    4.1005   -1.9833   -0.0121 H   0  0  0  0  0  0  0  0  0  0  0  0
    4.2628   -2.1956    1.7422 H   0  0  0  0  0  0  0  0  0  0  0  0
    3.1314   -3.2180    0.8293 H   0  0  0  0  0  0  0  0  0  0  0  0
  1  2  1  0  0  0  0
  2  3  1  0  0  0  0
  2  4  1  0  0  0  0
  2  5  1  0  0  0  0
  5  6  2  0  0  0  0
  5  7  1  0  0  0  0
  7  8  1  0  0  0  0
  7  9  1  0  0  0  0
  9 10  1  0  0  0  0
  9 11  1  0  0  0  0
  9 16  1  0  0  0  0
 11 12  1  0  0  0  0
 11 13  1  0  0  0  0
 11 14  1  0  0  0  0
 14 15  1  0  0  0  0
 16 17  2  0  0  0  0
 16 18  1  0  0  0  0
 18 19  1  0  0  0  0
 18 20  1  0  0  0  0
 20 21  1  0  0  0  0
 20 22  1  0  0  0  0
 20 23  1  0  0  0  0
M  END
$$$$

  -OEChem-01062216093D

 23 22  0     1  0  0  0  0  0999 V2000
   -2.7414   -3.6896    1.0175 H   0  0  0  0  0  0  0  0  0  0  0  0
   -2.7041   -2.6423    0.7047 C   0  0  0  0  0  0  0  0  0  0  0  0
   -3.4412   -2.0770    1.2797 H   0  0  0  0  0  0  0  0  0  0  0  0
   -2.9544   -2.5850   -0.3573 H   0  0  0  0  0  0  0  0  0  0  0  0
   -1.3165   -2.0764    0.9424 C   0  0  0  0  0  0  0  0  0  0  0  0
   -0.4824   -2.7720    1.4963 O   0  0  0  0  0  0  0  0  0  0  0  0
   -1.0532   -0.7724    0.5609 N   0  0  0  0  0  0  0  0  0  0  0  0
   -1.8078   -0.3040    0.0711 H   0  0  0  0  0  0  0  0  0  0  0  0
    0.2807   -0.1288    0.5283 C   0  0  1  0  0  0  0  0  0  0  0  0
    0.2722    0.5679   -0.3146 H   0  0  0  0  0  0  0  0  0  0  0  0
    0.4883    0.7235    1.7957 C   0  0  0  0  0  0  0  0  0  0  0  0
    1.4150    1.2986    1.6959 H   0  0  0  0  0  0  0  0  0  0  0  0
   -0.3361    1.4391    1.8797 H   0  0  0  0  0  0  0  0  0  0  0  0
    0.5492   -0.0599    2.9953 O   0  0  0  0  0  0  0  0  0  0  0  0
    0.5711    0.5086    3.7847 H   0  0  0  0  0  0  0  0  0  0  0  0
    1.4808   -1.0634    0.2428 C   0  0  0  0  0  0  0  0  0  0  0  0
    1.7172   -1.3711   -0.9205 O   0  0  0  0  0  0  0  0  0  0  0  0
    2.3509   -1.4554    1.2415 N   0  0  0  0  0  0  0  0  0  0  0  0
    1.9572   -1.3558    2.1785 H   0  0  0  0  0  0  0  0  0  0  0  0
    3.3690   -2.4744    1.0299 C   0  0  0  0  0  0  0  0  0  0  0  0
    4.0645   -2.1664    0.2423 H   0  0  0  0  0  0  0  0  0  0  0  0
    3.9396   -2.6333    1.9498 H   0  0  0  0  0  0  0  0  0  0  0  0
    2.9040   -3.4226    0.7402 H   0  0  0  0  0  0  0  0  0  0  0  0
  1  2  1  0  0  0  0
  2  3  1  0  0  0  0
  2  4  1  0  0  0  0
  2  5  1  0  0  0  0
  5  6  2  0  0  0  0
  5  7  1  0  0  0  0
  7  8  1  0  0  0  0
  7  9  1  0  0  0  0
  9 10  1  0  0  0  0
  9 11  1  0  0  0  0
  9 16  1  0  0  0  0
 11 12  1  0  0  0  0
 11 13  1  0  0  0  0
 11 14  1  0  0  0  0
 14 15  1  0  0  0  0
 16 17  2  0  0  0  0
 16 18  1  0  0  0  0
 18 19  1  0  0  0  0
 18 20  1  0  0  0  0
 20 21  1  0  0  0  0
 20 22  1  0  0  0  0
 20 23  1  0  0  0  0
M  END
$$$$

  -OEChem-01062216093D

 23 22  0     1  0  0  0  0  0999 V2000
   -2.8285   -3.6508    1.0338 H   0  0  0  0  0  0  0  0  0  0  0  0
   -2.7611   -2.6063    0.7159 C   0  0  0  0  0  0  0  0  0  0  0  0
   -3.4671   -2.0139    1.3027 H   0  0  0  0  0  0  0  0  0  0  0  0
   -3.0307   -2.5438   -0.3412 H   0  0  0  0  0  0  0  0  0  0  0  0
   -1.3503   -2.0874    0.9233 C   0  0  0  0  0  0  0  0  0  0  0  0
   -0.5280   -2.8138    1.4536 O   0  0  0  0  0  0  0  0  0  0  0  0
   -1.0531   -0.7928    0.5364 N   0  0  0  0  0  0  0  0  0  0  0  0
   -1.8127   -0.2881    0.0923 H   0  0  0  0  0  0  0  0  0  0  0  0
    0.2863   -0.1584    0.5160 C   0  0  1  0  0  0  0  0  0  0  0  0
    0.2869    0.5371   -0.3284 H   0  0  0  0  0  0  0  0  0  0  0  0
    0.4739    0.6958    1.7837 C   0  0  0  0  0  0  0  0  0  0  0  0
    1.4074    1.2619    1.6984 H   0  0  0  0  0  0  0  0  0  0  0  0
   -0.3457    1.4182    1.8523 H   0  0  0  0  0  0  0  0  0  0  0  0
    0.5091   -0.0871    2.9846 O   0  0  0  0  0  0  0  0  0  0  0  0
    0.5982    0.4809    3.7695 H   0  0  0  0  0  0  0  0  0  0  0  0
    1.5056   -1.0771    0.2593 C   0  0  0  0  0  0  0  0  0  0  0  0
    1.9118   -1.2003   -0.8910 O   0  0  0  0  0  0  0  0  0  0  0  0
    2.1862   -1.6955    1.2892 N   0  0  0  0  0  0  0  0  0  0  0  0
    1.6536   -1.7284    2.1603 H   0  0  0  0  0  0  0  0  0  0  0  0
    3.1950   -2.7198    1.0611 C   0  0  0  0  0  0  0  0  0  0  0  0
    4.0171   -2.3231    0.4565 H   0  0  0  0  0  0  0  0  0  0  0  0
    3.6046   -3.0632    2.0158 H   0  0  0  0  0  0  0  0  0  0  0  0
    2.7556   -3.5780    0.5418 H   0  0  0  0  0  0  0  0  0  0  0  0
  1  2  1  0  0  0  0
  2  3  1  0  0  0  0
  2  4  1  0  0  0  0
  2  5  1  0  0  0  0
  5  6  2  0  0  0  0
  5  7  1  0  0  0  0
  7  8  1  0  0  0  0
  7  9  1  0  0  0  0
  9 10  1  0  0  0  0
  9 11  1  0  0  0  0
  9 16  1  0  0  0  0
 11 12  1  0  0  0  0
 11 13  1  0  0  0  0
 11 14  1  0  0  0  0
 14 15  1  0  0  0  0
 16 17  2  0  0  0  0
 16 18  1  0  0  0  0
 18 19  1  0  0  0  0
 18 20  1  0  0  0  0
 20 21  1  0  0  0  0
 20 22  1  0  0  0  0
 20 23  1  0  0  0  0
M  END
$$$$

  -OEChem-01062216093D

 23 22  0     1  0  0  0  0  0999 V2000
   -2.9738   -3.5809    1.0633 H   0  0  0  0  0  0  0  0  0  0  0  0
   -2.8577   -2.5451    0.7315 C   0  0  0  0  0  0  0  0  0  0  0  0
   -3.5268   -1.9113    1.3183 H   0  0  0  0  0  0  0  0  0  0  0  0
   -3.1357   -2.4824   -0.3232 H   0  0  0  0  0  0  0  0  0  0  0  0
   -1.4208   -2.0943    0.9176 C   0  0  0  0  0  0  0  0  0  0  0  0
   -0.6306   -2.8573    1.4443 O   0  0  0  0  0  0  0  0  0  0  0  0
   -1.0694   -0.8175    0.5181 N   0  0  0  0  0  0  0  0  0  0  0  0
   -1.8219   -0.2744    0.1085 H   0  0  0  0  0  0  0  0  0  0  0  0
    0.2834   -0.2079    0.5017 C   0  0  1  0  0  0  0  0  0  0  0  0
    0.2941    0.4801   -0.3492 H   0  0  0  0  0  0  0  0  0  0  0  0
    0.4683    0.6536    1.7628 C   0  0  0  0  0  0  0  0  0  0  0  0
    1.4135    1.2016    1.6868 H   0  0  0  0  0  0  0  0  0  0  0  0
   -0.3383    1.3914    1.8173 H   0  0  0  0  0  0  0  0  0  0  0  0
    0.4739   -0.1271    2.9647 O   0  0  0  0  0  0  0  0  0  0  0  0
    0.6174    0.4337    3.7463 H   0  0  0  0  0  0  0  0  0  0  0  0
    1.5178   -1.1169    0.2765 C   0  0  0  0  0  0  0  0  0  0  0  0
    2.1122   -1.0315   -0.7926 O   0  0  0  0  0  0  0  0  0  0  0  0
    2.0171   -1.9536    1.2542 N   0  0  0  0  0  0  0  0  0  0  0  0
    1.3448   -2.1503    1.9992 H   0  0  0  0  0  0  0  0  0  0  0  0
    3.0693   -2.9277    1.0028 C   0  0  0  0  0  0  0  0  0  0  0  0
    3.9785   -2.4299    0.6499 H   0  0  0  0  0  0  0  0  0  0  0  0
    3.3082   -3.4679    1.9237 H   0  0  0  0  0  0  0  0  0  0  0  0
    2.7465   -3.6522    0.2481 H   0  0  0  0  0  0  0  0  0  0  0  0
  1  2  1  0  0  0  0
  2  3  1  0  0  0  0
  2  4  1  0  0  0  0
  2  5  1  0  0  0  0
  5  6  2  0  0  0  0
  5  7  1  0  0  0  0
  7  8  1  0  0  0  0
  7  9  1  0  0  0  0
  9 10  1  0  0  0  0
  9 11  1  0  0  0  0
  9 16  1  0  0  0  0
 11 12  1  0  0  0  0
 11 13  1  0  0  0  0
 11 14  1  0  0  0  0
 14 15  1  0  0  0  0
 16 17  2  0  0  0  0
 16 18  1  0  0  0  0
 18 19  1  0  0  0  0
 18 20  1  0  0  0  0
 20 21  1  0  0  0  0
 20 22  1  0  0  0  0
 20 23  1  0  0  0  0
M  END
$$$$

  -OEChem-01062216093D

 23 22  0     1  0  0  0  0  0999 V2000
   -3.1488   -3.4864    1.1025 H   0  0  0  0  0  0  0  0  0  0  0  0
   -2.9748   -2.4630    0.7578 C   0  0  0  0  0  0  0  0  0  0  0  0
   -3.5864   -1.7828    1.3555 H   0  0  0  0  0  0  0  0  0  0  0  0
   -3.2759   -2.3907   -0.2900 H   0  0  0  0  0  0  0  0  0  0  0  0
   -1.5076   -2.1038    0.9030 C   0  0  0  0  0  0  0  0  0  0  0  0
   -0.7541   -2.9218    1.3987 O   0  0  0  0  0  0  0  0  0  0  0  0
   -1.0963   -0.8476    0.4958 N   0  0  0  0  0  0  0  0  0  0  0  0
   -1.8397   -0.2605    0.1329 H   0  0  0  0  0  0  0  0  0  0  0  0
    0.2705   -0.2645    0.4782 C   0  0  1  0  0  0  0  0  0  0  0  0
    0.2871    0.4190   -0.3760 H   0  0  0  0  0  0  0  0  0  0  0  0
    0.4652    0.5959    1.7367 C   0  0  0  0  0  0  0  0  0  0  0  0
    1.4205    1.1271    1.6656 H   0  0  0  0  0  0  0  0  0  0  0  0
   -0.3286    1.3479    1.7894 H   0  0  0  0  0  0  0  0  0  0  0  0
    0.4506   -0.1901    2.9340 O   0  0  0  0  0  0  0  0  0  0  0  0
    0.6370    0.3572    3.7159 H   0  0  0  0  0  0  0  0  0  0  0  0
    1.5206   -1.1589    0.2751 C   0  0  0  0  0  0  0  0  0  0  0  0
    2.2772   -0.8810   -0.6489 O   0  0  0  0  0  0  0  0  0  0  0  0
    1.8688   -2.1922    1.1206 N   0  0  0  0  0  0  0  0  0  0  0  0
    1.1091   -2.5063    1.7310 H   0  0  0  0  0  0  0  0  0  0  0  0
    2.9791   -3.0996    0.8692 C   0  0  0  0  0  0  0  0  0  0  0  0
    3.9192   -2.5438    0.7892 H   0  0  0  0  0  0  0  0  0  0  0  0
    3.0717   -3.8154    1.6915 H   0  0  0  0  0  0  0  0  0  0  0  0
    2.8161   -3.6555   -0.0598 H   0  0  0  0  0  0  0  0  0  0  0  0
  1  2  1  0  0  0  0
  2  3  1  0  0  0  0
  2  4  1  0  0  0  0
  2  5  1  0  0  0  0
  5  6  2  0  0  0  0
  5  7  1  0  0  0  0
  7  8  1  0  0  0  0
  7  9  1  0  0  0  0
  9 10  1  0  0  0  0
  9 11  1  0  0  0  0
  9 16  1  0  0  0  0
 11 12  1  0  0  0  0
 11 13  1  0  0  0  0
 11 14  1  0  0  0  0
 14 15  1  0  0  0  0
 16 17  2  0  0  0  0
 16 18  1  0  0  0  0
 18 19  1  0  0  0  0
 18 20  1  0  0  0  0
 20 21  1  0  0  0  0
 20 22  1  0  0  0  0
 20 23  1  0  0  0  0
M  END
$$$$

  -OEChem-01062216093D

 23 22  0     1  0  0  0  0  0999 V2000
   -3.2979   -3.3923    1.1463 H   0  0  0  0  0  0  0  0  0  0  0  0
   -3.0779   -2.3806    0.7930 C   0  0  0  0  0  0  0  0  0  0  0  0
   -3.6350   -1.6669    1.4047 H   0  0  0  0  0  0  0  0  0  0  0  0
   -3.4033   -2.2943   -0.2465 H   0  0  0  0  0  0  0  0  0  0  0  0
   -1.5899   -2.1006    0.8975 C   0  0  0  0  0  0  0  0  0  0  0  0
   -0.8710   -2.9660    1.3618 O   0  0  0  0  0  0  0  0  0  0  0  0
   -1.1293   -0.8633    0.4839 N   0  0  0  0  0  0  0  0  0  0  0  0
   -1.8620   -0.2416    0.1587 H   0  0  0  0  0  0  0  0  0  0  0  0
    0.2512   -0.3078    0.4510 C   0  0  1  0  0  0  0  0  0  0  0  0
    0.2679    0.3777   -0.4017 H   0  0  0  0  0  0  0  0  0  0  0  0
    0.4701    0.5390    1.7139 C   0  0  0  0  0  0  0  0  0  0  0  0
    1.4337    1.0553    1.6425 H   0  0  0  0  0  0  0  0  0  0  0  0
   -0.3103    1.3038    1.7813 H   0  0  0  0  0  0  0  0  0  0  0  0
    0.4496   -0.2639    2.8995 O   0  0  0  0  0  0  0  0  0  0  0  0
    0.6656    0.2652    3.6863 H   0  0  0  0  0  0  0  0  0  0  0  0
    1.5086   -1.1934    0.2472 C   0  0  0  0  0  0  0  0  0  0  0  0
    2.3758   -0.7710   -0.5101 O   0  0  0  0  0  0  0  0  0  0  0  0
    1.7413   -2.3912    0.8895 N   0  0  0  0  0  0  0  0  0  0  0  0
    0.9534   -2.7624    1.4274 H   0  0  0  0  0  0  0  0  0  0  0  0
    2.8975   -3.2419    0.6483 C   0  0  0  0  0  0  0  0  0  0  0  0
    3.8248   -2.6938    0.8449 H   0  0  0  0  0  0  0  0  0  0  0  0
    2.8659   -4.1135    1.3090 H   0  0  0  0  0  0  0  0  0  0  0  0
    2.9053   -3.5917   -0.3890 H   0  0  0  0  0  0  0  0  0  0  0  0
  1  2  1  0  0  0  0
  2  3  1  0  0  0  0
  2  4  1  0  0  0  0
  2  5  1  0  0  0  0
  5  6  2  0  0  0  0
  5  7  1  0  0  0  0
  7  8  1  0  0  0  0
  7  9  1  0  0  0  0
  9 10  1  0  0  0  0
  9 11  1  0  0  0  0
  9 16  1  0  0  0  0
 11 12  1  0  0  0  0
 11 13  1  0  0  0  0
 11 14  1  0  0  0  0
 14 15  1  0  0  0  0
 16 17  2  0  0  0  0
 16 18  1  0  0  0  0
 18 19  1  0  0  0  0
 18 20  1  0  0  0  0
 20 21  1  0  0  0  0
 20 22  1  0  0  0  0
 20 23  1  0  0  0  0
M  END
$$$$

  -OEChem-01062216093D

 23 22  0     1  0  0  0  0  0999 V2000
   -2.8596   -3.7711    0.5537 H   0  0  0  0  0  0  0  0  0  0  0  0
   -2.7622   -2.6819    0.5750 C   0  0  0  0  0  0  0  0  0  0  0  0
   -3.0137   -2.3281    1.5777 H   0  0  0  0  0  0  0  0  0  0  0  0
   -3.4626   -2.2523   -0.1453 H   0  0  0  0  0  0  0  0  0  0  0  0
   -1.3425   -2.2768    0.2242 C   0  0  0  0  0  0  0  0  0  0  0  0
   -0.5852   -3.1328   -0.1861 O   0  0  0  0  0  0  0  0  0  0  0  0
   -1.0296   -0.9322    0.2174 N   0  0  0  0  0  0  0  0  0  0  0  0
   -1.8302   -0.3606    0.4627 H   0  0  0  0  0  0  0  0  0  0  0  0
    0.2765   -0.2488    0.4217 C   0  0  1  0  0  0  0  0  0  0  0  0
    0.2108    0.6216   -0.2386 H   0  0  0  0  0  0  0  0  0  0  0  0
    0.3203    0.3068    1.8543 C   0  0  0  0  0  0  0  0  0  0  0  0
    1.2177    0.9232    1.9763 H   0  0  0  0  0  0  0  0  0  0  0  0
   -0.5465    0.9551    2.0181 H   0  0  0  0  0  0  0  0  0  0  0  0
    0.3231   -0.7298    2.8410 O   0  0  0  0  0  0  0  0  0  0  0  0
    0.4279   -0.3579    3.7345 H   0  0  0  0  0  0  0  0  0  0  0  0
    1.6799   -0.8247    0.0669 C   0  0  0  0  0  0  0  0  0  0  0  0
    2.4834   -0.0535   -0.4396 O   0  0  0  0  0  0  0  0  0  0  0  0
    2.1549   -2.1159    0.0349 N   0  0  0  0  0  0  0  0  0  0  0  0
    3.0509   -2.1652   -0.4400 H   0  0  0  0  0  0  0  0  0  0  0  0
    1.9797   -3.0413    1.1478 C   0  0  0  0  0  0  0  0  0  0  0  0
    2.8256   -2.9635    1.8373 H   0  0  0  0  0  0  0  0  0  0  0  0
    1.0656   -2.8391    1.7095 H   0  0  0  0  0  0  0  0  0  0  0  0
    1.9251   -4.0678    0.7719 H   0  0  0  0  0  0  0  0  0  0  0  0
  1  2  1  0  0  0  0
  2  3  1  0  0  0  0
  2  4  1  0  0  0  0
  2  5  1  0  0  0  0
  5  6  2  0  0  0  0
  5  7  1  0  0  0  0
  7  8  1  0  0  0  0
  7  9  1  0  0  0  0
  9 10  1  0  0  0  0
  9 11  1  0  0  0  0
  9 16  1  0  0  0  0
 11 12  1  0  0  0  0
 11 13  1  0  0  0  0
 11 14  1  0  0  0  0
 14 15  1  0  0  0  0
 16 17  2  0  0  0  0
 16 18  1  0  0  0  0
 18 19  1  0  0  0  0
 18 20  1  0  0  0  0
 20 21  1  0  0  0  0
 20 22  1  0  0  0  0
 20 23  1  0  0  0  0
M  END
$$$$

  -OEChem-01062216093D

 23 22  0     1  0  0  0  0  0999 V2000
   -3.1709   -3.5930    1.1747 H   0  0  0  0  0  0  0  0  0  0  0  0
   -3.0123   -2.5258    0.9941 C   0  0  0  0  0  0  0  0  0  0  0  0
   -3.4095   -1.9643    1.8432 H   0  0  0  0  0  0  0  0  0  0  0  0
   -3.5531   -2.2395    0.0889 H   0  0  0  0  0  0  0  0  0  0  0  0
   -1.5315   -2.2363    0.8273 C   0  0  0  0  0  0  0  0  0  0  0  0
   -0.7608   -3.1692    0.9020 O   0  0  0  0  0  0  0  0  0  0  0  0
   -1.1554   -0.9222    0.6223 N   0  0  0  0  0  0  0  0  0  0  0  0
   -1.9411   -0.2813    0.6279 H   0  0  0  0  0  0  0  0  0  0  0  0
    0.1730   -0.2855    0.4069 C   0  0  1  0  0  0  0  0  0  0  0  0
   -0.0412    0.5585   -0.2556 H   0  0  0  0  0  0  0  0  0  0  0  0
    0.6485    0.3138    1.7405 C   0  0  0  0  0  0  0  0  0  0  0  0
    1.5575    0.9024    1.5749 H   0  0  0  0  0  0  0  0  0  0  0  0
   -0.1179    0.9957    2.1228 H   0  0  0  0  0  0  0  0  0  0  0  0
    0.9092   -0.6940    2.7226 O   0  0  0  0  0  0  0  0  0  0  0  0
    1.2211   -0.3001    3.5552 H   0  0  0  0  0  0  0  0  0  0  0  0
    1.4012   -0.9569   -0.2755 C   0  0  0  0  0  0  0  0  0  0  0  0
    2.1113   -0.2273   -0.9544 O   0  0  0  0  0  0  0  0  0  0  0  0
    1.6606   -2.2748   -0.5650 N   0  0  0  0  0  0  0  0  0  0  0  0
    2.2671   -2.3286   -1.3773 H   0  0  0  0  0  0  0  0  0  0  0  0
    2.0692   -3.1638    0.5168 C   0  0  0  0  0  0  0  0  0  0  0  0
    1.6987   -2.8210    1.4872 H   0  0  0  0  0  0  0  0  0  0  0  0
    1.6838   -4.1727    0.3390 H   0  0  0  0  0  0  0  0  0  0  0  0
    3.1611   -3.2114    0.5706 H   0  0  0  0  0  0  0  0  0  0  0  0
  1  2  1  0  0  0  0
  2  3  1  0  0  0  0
  2  4  1  0  0  0  0
  2  5  1  0  0  0  0
  5  6  2  0  0  0  0
  5  7  1  0  0  0  0
  7  8  1  0  0  0  0
  7  9  1  0  0  0  0
  9 10  1  0  0  0  0
  9 11  1  0  0  0  0
  9 16  1  0  0  0  0
 11 12  1  0  0  0  0
 11 13  1  0  0  0  0
 11 14  1  0  0  0  0
 14 15  1  0  0  0  0
 16 17  2  0  0  0  0
 16 18  1  0  0  0  0
 18 19  1  0  0  0  0
 18 20  1  0  0  0  0
 20 21  1  0  0  0  0
 20 22  1  0  0  0  0
 20 23  1  0  0  0  0
M  END
$$$$

  -OEChem-01062216093D

 23 22  0     1  0  0  0  0  0999 V2000
   -3.3665   -3.3194    1.2253 H   0  0  0  0  0  0  0  0  0  0  0  0
   -3.1396   -2.3022    0.8931 C   0  0  0  0  0  0  0  0  0  0  0  0
   -3.6048   -1.5965    1.5855 H   0  0  0  0  0  0  0  0  0  0  0  0
   -3.5600   -2.1572   -0.1048 H   0  0  0  0  0  0  0  0  0  0  0  0
   -1.6383   -2.0839    0.8622 C   0  0  0  0  0  0  0  0  0  0  0  0
   -0.9146   -3.0054    1.1916 O   0  0  0  0  0  0  0  0  0  0  0  0
   -1.1676   -0.8433    0.4704 N   0  0  0  0  0  0  0  0  0  0  0  0
   -1.9030   -0.1699    0.2834 H   0  0  0  0  0  0  0  0  0  0  0  0
    0.2228   -0.3132    0.3973 C   0  0  1  0  0  0  0  0  0  0  0  0
    0.2236    0.4017   -0.4301 H   0  0  0  0  0  0  0  0  0  0  0  0
    0.4790    0.4779    1.6927 C   0  0  0  0  0  0  0  0  0  0  0  0
    1.4410    0.9976    1.6296 H   0  0  0  0  0  0  0  0  0  0  0  0
   -0.2955    1.2419    1.8142 H   0  0  0  0  0  0  0  0  0  0  0  0
    0.4767   -0.3823    2.8374 O   0  0  0  0  0  0  0  0  0  0  0  0
    0.7705    0.0927    3.6332 H   0  0  0  0  0  0  0  0  0  0  0  0
    1.4696   -1.1968    0.1118 C   0  0  0  0  0  0  0  0  0  0  0  0
    2.5351   -0.6203   -0.0849 O   0  0  0  0  0  0  0  0  0  0  0  0
    1.4401   -2.5601   -0.1051 N   0  0  0  0  0  0  0  0  0  0  0  0
    0.6067   -3.0307    0.2531 H   0  0  0  0  0  0  0  0  0  0  0  0
    2.6370   -3.3628   -0.3192 C   0  0  0  0  0  0  0  0  0  0  0  0
    3.3088   -3.2860    0.5419 H   0  0  0  0  0  0  0  0  0  0  0  0
    2.3647   -4.4138   -0.4544 H   0  0  0  0  0  0  0  0  0  0  0  0
    3.1698   -3.0275   -1.2151 H   0  0  0  0  0  0  0  0  0  0  0  0
  1  2  1  0  0  0  0
  2  3  1  0  0  0  0
  2  4  1  0  0  0  0
  2  5  1  0  0  0  0
  5  6  2  0  0  0  0
  5  7  1  0  0  0  0
  7  8  1  0  0  0  0
  7  9  1  0  0  0  0
  9 10  1  0  0  0  0
  9 11  1  0  0  0  0
  9 16  1  0  0  0  0
 11 12  1  0  0  0  0
 11 13  1  0  0  0  0
 11 14  1  0  0  0  0
 14 15  1  0  0  0  0
 16 17  2  0  0  0  0
 16 18  1  0  0  0  0
 18 19  1  0  0  0  0
 18 20  1  0  0  0  0
 20 21  1  0  0  0  0
 20 22  1  0  0  0  0
 20 23  1  0  0  0  0
M  END
$$$$

  -OEChem-01062216093D

 23 22  0     1  0  0  0  0  0999 V2000
   -3.2876   -3.3487    1.2499 H   0  0  0  0  0  0  0  0  0  0  0  0
   -3.0878   -2.3220    0.9297 C   0  0  0  0  0  0  0  0  0  0  0  0
   -3.5116   -1.6368    1.6678 H   0  0  0  0  0  0  0  0  0  0  0  0
   -3.5716   -2.1547   -0.0356 H   0  0  0  0  0  0  0  0  0  0  0  0
   -1.5927   -2.0926    0.8085 C   0  0  0  0  0  0  0  0  0  0  0  0
   -0.8427   -3.0277    1.0210 O   0  0  0  0  0  0  0  0  0  0  0  0
   -1.1506   -0.8361    0.4353 N   0  0  0  0  0  0  0  0  0  0  0  0
   -1.8948   -0.1527    0.3438 H   0  0  0  0  0  0  0  0  0  0  0  0
    0.2341   -0.2910    0.3865 C   0  0  1  0  0  0  0  0  0  0  0  0
    0.2435    0.4318   -0.4337 H   0  0  0  0  0  0  0  0  0  0  0  0
    0.4560    0.4895    1.6959 C   0  0  0  0  0  0  0  0  0  0  0  0
    1.4120    1.0227    1.6569 H   0  0  0  0  0  0  0  0  0  0  0  0
   -0.3299    1.2426    1.8116 H   0  0  0  0  0  0  0  0  0  0  0  0
    0.4431   -0.3851    2.8300 O   0  0  0  0  0  0  0  0  0  0  0  0
    0.7752    0.0677    3.6239 H   0  0  0  0  0  0  0  0  0  0  0  0
    1.4816   -1.1749    0.1039 C   0  0  0  0  0  0  0  0  0  0  0  0
    2.5851   -0.6378    0.1181 O   0  0  0  0  0  0  0  0  0  0  0  0
    1.4086   -2.4539   -0.4138 N   0  0  0  0  0  0  0  0  0  0  0  0
    0.5417   -2.9416   -0.1798 H   0  0  0  0  0  0  0  0  0  0  0  0
    2.5899   -3.2707   -0.6625 C   0  0  0  0  0  0  0  0  0  0  0  0
    3.1589   -3.4129    0.2622 H   0  0  0  0  0  0  0  0  0  0  0  0
    2.2938   -4.2531   -1.0426 H   0  0  0  0  0  0  0  0  0  0  0  0
    3.2374   -2.7948   -1.4063 H   0  0  0  0  0  0  0  0  0  0  0  0
  1  2  1  0  0  0  0
  2  3  1  0  0  0  0
  2  4  1  0  0  0  0
  2  5  1  0  0  0  0
  5  6  2  0  0  0  0
  5  7  1  0  0  0  0
  7  8  1  0  0  0  0
  7  9  1  0  0  0  0
  9 10  1  0  0  0  0
  9 11  1  0  0  0  0
  9 16  1  0  0  0  0
 11 12  1  0  0  0  0
 11 13  1  0  0  0  0
 11 14  1  0  0  0  0
 14 15  1  0  0  0  0
 16 17  2  0  0  0  0
 16 18  1  0  0  0  0
 18 19  1  0  0  0  0
 18 20  1  0  0  0  0
 20 21  1  0  0  0  0
 20 22  1  0  0  0  0
 20 23  1  0  0  0  0
M  END
$$$$

  -OEChem-01062216093D

 23 22  0     1  0  0  0  0  0999 V2000
   -3.1790   -3.3848    1.2709 H   0  0  0  0  0  0  0  0  0  0  0  0
   -3.0137   -2.3463    0.9693 C   0  0  0  0  0  0  0  0  0  0  0  0
   -3.3773   -1.6904    1.7640 H   0  0  0  0  0  0  0  0  0  0  0  0
   -3.5795   -2.1513    0.0553 H   0  0  0  0  0  0  0  0  0  0  0  0
   -1.5357   -2.0999    0.7295 C   0  0  0  0  0  0  0  0  0  0  0  0
   -0.7682   -3.0430    0.7952 O   0  0  0  0  0  0  0  0  0  0  0  0
   -1.1259   -0.8261    0.3787 N   0  0  0  0  0  0  0  0  0  0  0  0
   -1.8734   -0.1405    0.4003 H   0  0  0  0  0  0  0  0  0  0  0  0
    0.2538   -0.2694    0.3773 C   0  0  1  0  0  0  0  0  0  0  0  0
    0.2881    0.4574   -0.4385 H   0  0  0  0  0  0  0  0  0  0  0  0
    0.4221    0.5077    1.6970 C   0  0  0  0  0  0  0  0  0  0  0  0
    1.3744    1.0483    1.6936 H   0  0  0  0  0  0  0  0  0  0  0  0
   -0.3725    1.2550    1.7893 H   0  0  0  0  0  0  0  0  0  0  0  0
    0.3769   -0.3732    2.8254 O   0  0  0  0  0  0  0  0  0  0  0  0
    0.7438    0.0571    3.6168 H   0  0  0  0  0  0  0  0  0  0  0  0
    1.4985   -1.1641    0.1184 C   0  0  0  0  0  0  0  0  0  0  0  0
    2.6153   -0.7209    0.3697 O   0  0  0  0  0  0  0  0  0  0  0  0
    1.4261   -2.2882   -0.6829 N   0  0  0  0  0  0  0  0  0  0  0  0
    0.5260   -2.7659   -0.6122 H   0  0  0  0  0  0  0  0  0  0  0  0
    2.5916   -3.1149   -0.9699 C   0  0  0  0  0  0  0  0  0  0  0  0
    3.0264   -3.4994   -0.0413 H   0  0  0  0  0  0  0  0  0  0  0  0
    2.3042   -3.9641   -1.5970 H   0  0  0  0  0  0  0  0  0  0  0  0
    3.3526   -2.5356   -1.5031 H   0  0  0  0  0  0  0  0  0  0  0  0
  1  2  1  0  0  0  0
  2  3  1  0  0  0  0
  2  4  1  0  0  0  0
  2  5  1  0  0  0  0
  5  6  2  0  0  0  0
  5  7  1  0  0  0  0
  7  8  1  0  0  0  0
  7  9  1  0  0  0  0
  9 10  1  0  0  0  0
  9 11  1  0  0  0  0
  9 16  1  0  0  0  0
 11 12  1  0  0  0  0
 11 13  1  0  0  0  0
 11 14  1  0  0  0  0
 14 15  1  0  0  0  0
 16 17  2  0  0  0  0
 16 18  1  0  0  0  0
 18 19  1  0  0  0  0
 18 20  1  0  0  0  0
 20 21  1  0  0  0  0
 20 22  1  0  0  0  0
 20 23  1  0  0  0  0
M  END
$$$$

  -OEChem-01062216093D

 23 22  0     1  0  0  0  0  0999 V2000
   -3.0047   -3.4610    1.2629 H   0  0  0  0  0  0  0  0  0  0  0  0
   -2.9059   -2.4045    0.9973 C   0  0  0  0  0  0  0  0  0  0  0  0
   -3.2806   -1.7993    1.8266 H   0  0  0  0  0  0  0  0  0  0  0  0
   -3.5088   -2.2076    0.1076 H   0  0  0  0  0  0  0  0  0  0  0  0
   -1.4515   -2.0671    0.7277 C   0  0  0  0  0  0  0  0  0  0  0  0
   -0.6153   -2.9488    0.8042 O   0  0  0  0  0  0  0  0  0  0  0  0
   -1.1215   -0.7763    0.3563 N   0  0  0  0  0  0  0  0  0  0  0  0
   -1.9006   -0.1272    0.4079 H   0  0  0  0  0  0  0  0  0  0  0  0
    0.2302   -0.1600    0.3665 C   0  0  1  0  0  0  0  0  0  0  0  0
    0.2566    0.5604   -0.4555 H   0  0  0  0  0  0  0  0  0  0  0  0
    0.3581    0.6332    1.6806 C   0  0  0  0  0  0  0  0  0  0  0  0
    1.2825    1.2208    1.6800 H   0  0  0  0  0  0  0  0  0  0  0  0
   -0.4745    1.3388    1.7638 H   0  0  0  0  0  0  0  0  0  0  0  0
    0.3443   -0.2426    2.8117 O   0  0  0  0  0  0  0  0  0  0  0  0
    1.1140   -0.8445    2.7673 H   0  0  0  0  0  0  0  0  0  0  0  0
    1.4780   -1.0560    0.1343 C   0  0  0  0  0  0  0  0  0  0  0  0
    2.5166   -0.8513    0.7544 O   0  0  0  0  0  0  0  0  0  0  0  0
    1.4853   -1.9981   -0.8778 N   0  0  0  0  0  0  0  0  0  0  0  0
    0.5594   -2.3550   -1.1043 H   0  0  0  0  0  0  0  0  0  0  0  0
    2.6096   -2.9045   -1.0780 C   0  0  0  0  0  0  0  0  0  0  0  0
    2.7670   -3.5212   -0.1868 H   0  0  0  0  0  0  0  0  0  0  0  0
    2.4139   -3.5654   -1.9277 H   0  0  0  0  0  0  0  0  0  0  0  0
    3.5263   -2.3421   -1.2845 H   0  0  0  0  0  0  0  0  0  0  0  0
  1  2  1  0  0  0  0
  2  3  1  0  0  0  0
  2  4  1  0  0  0  0
  2  5  1  0  0  0  0
  5  6  2  0  0  0  0
  5  7  1  0  0  0  0
  7  8  1  0  0  0  0
  7  9  1  0  0  0  0
  9 10  1  0  0  0  0
  9 11  1  0  0  0  0
  9 16  1  0  0  0  0
 11 12  1  0  0  0  0
 11 13  1  0  0  0  0
 11 14  1  0  0  0  0
 14 15  1  0  0  0  0
 16 17  2  0  0  0  0
 16 18  1  0  0  0  0
 18 19  1  0  0  0  0
 18 20  1  0  0  0  0
 20 21  1  0  0  0  0
 20 22  1  0  0  0  0
 20 23  1  0  0  0  0
M  END
$$$$

  -OEChem-01062216093D

 23 22  0     1  0  0  0  0  0999 V2000
   -2.9058   -3.5000    1.2715 H   0  0  0  0  0  0  0  0  0  0  0  0
   -2.8352   -2.4407    1.0085 C   0  0  0  0  0  0  0  0  0  0  0  0
   -3.2005   -1.8465    1.8497 H   0  0  0  0  0  0  0  0  0  0  0  0
   -3.4642   -2.2526    0.1354 H   0  0  0  0  0  0  0  0  0  0  0  0
   -1.3955   -2.0725    0.7034 C   0  0  0  0  0  0  0  0  0  0  0  0
   -0.5416   -2.9399    0.7407 O   0  0  0  0  0  0  0  0  0  0  0  0
   -1.1013   -0.7718    0.3341 N   0  0  0  0  0  0  0  0  0  0  0  0
   -1.8911   -0.1395    0.4204 H   0  0  0  0  0  0  0  0  0  0  0  0
    0.2382   -0.1333    0.3667 C   0  0  1  0  0  0  0  0  0  0  0  0
    0.2716    0.5909   -0.4518 H   0  0  0  0  0  0  0  0  0  0  0  0
    0.3421    0.6564    1.6844 C   0  0  0  0  0  0  0  0  0  0  0  0
    1.2637    1.2483    1.6933 H   0  0  0  0  0  0  0  0  0  0  0  0
   -0.4967    1.3552    1.7637 H   0  0  0  0  0  0  0  0  0  0  0  0
    0.3296   -0.2272    2.8089 O   0  0  0  0  0  0  0  0  0  0  0  0
    1.0880   -0.8443    2.7367 H   0  0  0  0  0  0  0  0  0  0  0  0
    1.4838   -1.0336    0.1516 C   0  0  0  0  0  0  0  0  0  0  0  0
    2.4203   -1.0220    0.9455 O   0  0  0  0  0  0  0  0  0  0  0  0
    1.6153   -1.7410   -1.0295 N   0  0  0  0  0  0  0  0  0  0  0  0
    0.7409   -1.9213   -1.5144 H   0  0  0  0  0  0  0  0  0  0  0  0
    2.7094   -2.6796   -1.2459 C   0  0  0  0  0  0  0  0  0  0  0  0
    2.6814   -3.4778   -0.4964 H   0  0  0  0  0  0  0  0  0  0  0  0
    2.6275   -3.1322   -2.2386 H   0  0  0  0  0  0  0  0  0  0  0  0
    3.6751   -2.1673   -1.1806 H   0  0  0  0  0  0  0  0  0  0  0  0
  1  2  1  0  0  0  0
  2  3  1  0  0  0  0
  2  4  1  0  0  0  0
  2  5  1  0  0  0  0
  5  6  2  0  0  0  0
  5  7  1  0  0  0  0
  7  8  1  0  0  0  0
  7  9  1  0  0  0  0
  9 10  1  0  0  0  0
  9 11  1  0  0  0  0
  9 16  1  0  0  0  0
 11 12  1  0  0  0  0
 11 13  1  0  0  0  0
 11 14  1  0  0  0  0
 14 15  1  0  0  0  0
 16 17  2  0  0  0  0
 16 18  1  0  0  0  0
 18 19  1  0  0  0  0
 18 20  1  0  0  0  0
 20 21  1  0  0  0  0
 20 22  1  0  0  0  0
 20 23  1  0  0  0  0
M  END
$$$$

  -OEChem-01062216093D

 23 22  0     1  0  0  0  0  0999 V2000
   -2.8758   -3.4991    1.3139 H   0  0  0  0  0  0  0  0  0  0  0  0
   -2.8162   -2.4458    1.0252 C   0  0  0  0  0  0  0  0  0  0  0  0
   -3.1723   -1.8344    1.8582 H   0  0  0  0  0  0  0  0  0  0  0  0
   -3.4594   -2.2815    0.1575 H   0  0  0  0  0  0  0  0  0  0  0  0
   -1.3835   -2.0769    0.6897 C   0  0  0  0  0  0  0  0  0  0  0  0
   -0.5314   -2.9469    0.6928 O   0  0  0  0  0  0  0  0  0  0  0  0
   -1.0963   -0.7748    0.3194 N   0  0  0  0  0  0  0  0  0  0  0  0
   -1.8854   -0.1451    0.4263 H   0  0  0  0  0  0  0  0  0  0  0  0
    0.2414   -0.1361    0.3665 C   0  0  1  0  0  0  0  0  0  0  0  0
    0.2837    0.5905   -0.4492 H   0  0  0  0  0  0  0  0  0  0  0  0
    0.3310    0.6532    1.6854 C   0  0  0  0  0  0  0  0  0  0  0  0
    1.2565    1.2388    1.7029 H   0  0  0  0  0  0  0  0  0  0  0  0
   -0.5052    1.3560    1.7568 H   0  0  0  0  0  0  0  0  0  0  0  0
    0.3064   -0.2310    2.8089 O   0  0  0  0  0  0  0  0  0  0  0  0
    1.0422   -0.8752    2.7164 H   0  0  0  0  0  0  0  0  0  0  0  0
    1.4864   -1.0411    0.1677 C   0  0  0  0  0  0  0  0  0  0  0  0
    2.3068   -1.2022    1.0677 O   0  0  0  0  0  0  0  0  0  0  0  0
    1.7904   -1.4992   -1.1016 N   0  0  0  0  0  0  0  0  0  0  0  0
    1.0158   -1.5126   -1.7581 H   0  0  0  0  0  0  0  0  0  0  0  0
    2.9068   -2.4034   -1.3493 C   0  0  0  0  0  0  0  0  0  0  0  0
    2.7851   -3.3269   -0.7731 H   0  0  0  0  0  0  0  0  0  0  0  0
    2.9565   -2.6604   -2.4116 H   0  0  0  0  0  0  0  0  0  0  0  0
    3.8539   -1.9326   -1.0651 H   0  0  0  0  0  0  0  0  0  0  0  0
  1  2  1  0  0  0  0
  2  3  1  0  0  0  0
  2  4  1  0  0  0  0
  2  5  1  0  0  0  0
  5  6  2  0  0  0  0
  5  7  1  0  0  0  0
  7  8  1  0  0  0  0
  7  9  1  0  0  0  0
  9 10  1  0  0  0  0
  9 11  1  0  0  0  0
  9 16  1  0  0  0  0
 11 12  1  0  0  0  0
 11 13  1  0  0  0  0
 11 14  1  0  0  0  0
 14 15  1  0  0  0  0
 16 17  2  0  0  0  0
 16 18  1  0  0  0  0
 18 19  1  0  0  0  0
 18 20  1  0  0  0  0
 20 21  1  0  0  0  0
 20 22  1  0  0  0  0
 20 23  1  0  0  0  0
M  END
$$$$

  -OEChem-01062216093D

 23 22  0     1  0  0  0  0  0999 V2000
   -2.8833   -3.4907    1.3532 H   0  0  0  0  0  0  0  0  0  0  0  0
   -2.8218   -2.4406    1.0530 C   0  0  0  0  0  0  0  0  0  0  0  0
   -3.1551   -1.8186    1.8875 H   0  0  0  0  0  0  0  0  0  0  0  0
   -3.4818   -2.2794    0.1974 H   0  0  0  0  0  0  0  0  0  0  0  0
   -1.3937   -2.0862    0.6830 C   0  0  0  0  0  0  0  0  0  0  0  0
   -0.5527   -2.9659    0.6541 O   0  0  0  0  0  0  0  0  0  0  0  0
   -1.1015   -0.7876    0.3057 N   0  0  0  0  0  0  0  0  0  0  0  0
   -1.8851   -0.1538    0.4273 H   0  0  0  0  0  0  0  0  0  0  0  0
    0.2393   -0.1563    0.3558 C   0  0  1  0  0  0  0  0  0  0  0  0
    0.2844    0.5690   -0.4610 H   0  0  0  0  0  0  0  0  0  0  0  0
    0.3255    0.6380    1.6715 C   0  0  0  0  0  0  0  0  0  0  0  0
    1.2565    1.2144    1.6908 H   0  0  0  0  0  0  0  0  0  0  0  0
   -0.5047    1.3484    1.7354 H   0  0  0  0  0  0  0  0  0  0  0  0
    0.2894   -0.2405    2.7992 O   0  0  0  0  0  0  0  0  0  0  0  0
    0.9932   -0.9191    2.6877 H   0  0  0  0  0  0  0  0  0  0  0  0
    1.4885   -1.0599    0.1705 C   0  0  0  0  0  0  0  0  0  0  0  0
    2.1875   -1.3803    1.1290 O   0  0  0  0  0  0  0  0  0  0  0  0
    1.9859   -1.2698   -1.1037 N   0  0  0  0  0  0  0  0  0  0  0  0
    1.3365   -1.1160   -1.8688 H   0  0  0  0  0  0  0  0  0  0  0  0
    3.1552   -2.1042   -1.3543 C   0  0  0  0  0  0  0  0  0  0  0  0
    2.9878   -3.1194   -0.9788 H   0  0  0  0  0  0  0  0  0  0  0  0
    3.3569   -2.1603   -2.4281 H   0  0  0  0  0  0  0  0  0  0  0  0
    4.0386   -1.6865   -0.8599 H   0  0  0  0  0  0  0  0  0  0  0  0
  1  2  1  0  0  0  0
  2  3  1  0  0  0  0
  2  4  1  0  0  0  0
  2  5  1  0  0  0  0
  5  6  2  0  0  0  0
  5  7  1  0  0  0  0
  7  8  1  0  0  0  0
  7  9  1  0  0  0  0
  9 10  1  0  0  0  0
  9 11  1  0  0  0  0
  9 16  1  0  0  0  0
 11 12  1  0  0  0  0
 11 13  1  0  0  0  0
 11 14  1  0  0  0  0
 14 15  1  0  0  0  0
 16 17  2  0  0  0  0
 16 18  1  0  0  0  0
 18 19  1  0  0  0  0
 18 20  1  0  0  0  0
 20 21  1  0  0  0  0
 20 22  1  0  0  0  0
 20 23  1  0  0  0  0
M  END
$$$$

  -OEChem-01062216093D

 23 22  0     1  0  0  0  0  0999 V2000
   -2.9005   -3.4780    1.3861 H   0  0  0  0  0  0  0  0  0  0  0  0
   -2.8322   -2.4293    1.0826 C   0  0  0  0  0  0  0  0  0  0  0  0
   -3.1337   -1.8018    1.9250 H   0  0  0  0  0  0  0  0  0  0  0  0
   -3.5130   -2.2595    0.2452 H   0  0  0  0  0  0  0  0  0  0  0  0
   -1.4097   -2.0965    0.6731 C   0  0  0  0  0  0  0  0  0  0  0  0
   -0.5893   -2.9925    0.6032 O   0  0  0  0  0  0  0  0  0  0  0  0
   -1.1076   -0.8026    0.2887 N   0  0  0  0  0  0  0  0  0  0  0  0
   -1.8831   -0.1623    0.4259 H   0  0  0  0  0  0  0  0  0  0  0  0
    0.2378   -0.1813    0.3376 C   0  0  1  0  0  0  0  0  0  0  0  0
    0.2827    0.5426   -0.4800 H   0  0  0  0  0  0  0  0  0  0  0  0
    0.3297    0.6154    1.6516 C   0  0  0  0  0  0  0  0  0  0  0  0
    1.2667    1.1823    1.6697 H   0  0  0  0  0  0  0  0  0  0  0  0
   -0.4936    1.3341    1.7142 H   0  0  0  0  0  0  0  0  0  0  0  0
    0.2865   -0.2608    2.7808 O   0  0  0  0  0  0  0  0  0  0  0  0
    0.9533   -0.9740    2.6481 H   0  0  0  0  0  0  0  0  0  0  0  0
    1.4909   -1.0829    0.1623 C   0  0  0  0  0  0  0  0  0  0  0  0
    2.0671   -1.5564    1.1389 O   0  0  0  0  0  0  0  0  0  0  0  0
    2.1797   -1.0549   -1.0385 N   0  0  0  0  0  0  0  0  0  0  0  0
    1.6651   -0.7313   -1.8514 H   0  0  0  0  0  0  0  0  0  0  0  0
    3.4071   -1.8124   -1.2560 C   0  0  0  0  0  0  0  0  0  0  0  0
    3.2305   -2.8818   -1.0978 H   0  0  0  0  0  0  0  0  0  0  0  0
    3.7643   -1.6676   -2.2799 H   0  0  0  0  0  0  0  0  0  0  0  0
    4.1915   -1.4795   -0.5679 H   0  0  0  0  0  0  0  0  0  0  0  0
  1  2  1  0  0  0  0
  2  3  1  0  0  0  0
  2  4  1  0  0  0  0
  2  5  1  0  0  0  0
  5  6  2  0  0  0  0
  5  7  1  0  0  0  0
  7  8  1  0  0  0  0
  7  9  1  0  0  0  0
  9 10  1  0  0  0  0
  9 11  1  0  0  0  0
  9 16  1  0  0  0  0
 11 12  1  0  0  0  0
 11 13  1  0  0  0  0
 11 14  1  0  0  0  0
 14 15  1  0  0  0  0
 16 17  2  0  0  0  0
 16 18  1  0  0  0  0
 18 19  1  0  0  0  0
 18 20  1  0  0  0  0
 20 21  1  0  0  0  0
 20 22  1  0  0  0  0
 20 23  1  0  0  0  0
M  END
$$$$

  -OEChem-01062216093D

 23 22  0     1  0  0  0  0  0999 V2000
   -2.9381   -3.4742    1.3769 H   0  0  0  0  0  0  0  0  0  0  0  0
   -2.8339   -2.4084    1.1539 C   0  0  0  0  0  0  0  0  0  0  0  0
   -3.0361   -1.8391    2.0645 H   0  0  0  0  0  0  0  0  0  0  0  0
   -3.5647   -2.1359    0.3890 H   0  0  0  0  0  0  0  0  0  0  0  0
   -1.4287   -2.1128    0.6637 C   0  0  0  0  0  0  0  0  0  0  0  0
   -0.6414   -3.0310    0.5335 O   0  0  0  0  0  0  0  0  0  0  0  0
   -1.1167   -0.8297    0.2532 N   0  0  0  0  0  0  0  0  0  0  0  0
   -1.8801   -0.1799    0.4122 H   0  0  0  0  0  0  0  0  0  0  0  0
    0.2337   -0.2179    0.2917 C   0  0  1  0  0  0  0  0  0  0  0  0
    0.2766    0.4919   -0.5384 H   0  0  0  0  0  0  0  0  0  0  0  0
    0.3319    0.5951    1.5939 C   0  0  0  0  0  0  0  0  0  0  0  0
    1.2736    1.1542    1.6043 H   0  0  0  0  0  0  0  0  0  0  0  0
   -0.4855    1.3209    1.6484 H   0  0  0  0  0  0  0  0  0  0  0  0
    0.2827   -0.2680    2.7331 O   0  0  0  0  0  0  0  0  0  0  0  0
    0.9165   -1.0102    2.5927 H   0  0  0  0  0  0  0  0  0  0  0  0
    1.4953   -1.1124    0.1408 C   0  0  0  0  0  0  0  0  0  0  0  0
    1.9545   -1.7123    1.1096 O   0  0  0  0  0  0  0  0  0  0  0  0
    2.3595   -0.8789   -0.9163 N   0  0  0  0  0  0  0  0  0  0  0  0
    1.9793   -0.4008   -1.7269 H   0  0  0  0  0  0  0  0  0  0  0  0
    3.6469   -1.5522   -1.0509 C   0  0  0  0  0  0  0  0  0  0  0  0
    3.5098   -2.6383   -1.0846 H   0  0  0  0  0  0  0  0  0  0  0  0
    4.1442   -1.2370   -1.9731 H   0  0  0  0  0  0  0  0  0  0  0  0
    4.3001   -1.3054   -0.2072 H   0  0  0  0  0  0  0  0  0  0  0  0
  1  2  1  0  0  0  0
  2  3  1  0  0  0  0
  2  4  1  0  0  0  0
  2  5  1  0  0  0  0
  5  6  2  0  0  0  0
  5  7  1  0  0  0  0
  7  8  1  0  0  0  0
  7  9  1  0  0  0  0
  9 10  1  0  0  0  0
  9 11  1  0  0  0  0
  9 16  1  0  0  0  0
 11 12  1  0  0  0  0
 11 13  1  0  0  0  0
 11 14  1  0  0  0  0
 14 15  1  0  0  0  0
 16 17  2  0  0  0  0
 16 18  1  0  0  0  0
 18 19  1  0  0  0  0
 18 20  1  0  0  0  0
 20 21  1  0  0  0  0
 20 22  1  0  0  0  0
 20 23  1  0  0  0  0
M  END
$$$$

  -OEChem-01062216093D

 23 22  0     1  0  0  0  0  0999 V2000
   -2.9483   -3.4484    1.4083 H   0  0  0  0  0  0  0  0  0  0  0  0
   -2.8154   -2.3796    1.2176 C   0  0  0  0  0  0  0  0  0  0  0  0
   -2.9161   -1.8405    2.1630 H   0  0  0  0  0  0  0  0  0  0  0  0
   -3.5938   -2.0458    0.5277 H   0  0  0  0  0  0  0  0  0  0  0  0
   -1.4434   -2.1225    0.6229 C   0  0  0  0  0  0  0  0  0  0  0  0
   -0.7135   -3.0660    0.3854 O   0  0  0  0  0  0  0  0  0  0  0  0
   -1.1196   -0.8452    0.2056 N   0  0  0  0  0  0  0  0  0  0  0  0
   -1.8676   -0.1878    0.4015 H   0  0  0  0  0  0  0  0  0  0  0  0
    0.2364   -0.2455    0.2483 C   0  0  1  0  0  0  0  0  0  0  0  0
    0.2843    0.4644   -0.5812 H   0  0  0  0  0  0  0  0  0  0  0  0
    0.3369    0.5554    1.5570 C   0  0  0  0  0  0  0  0  0  0  0  0
    1.2825    1.1078    1.5759 H   0  0  0  0  0  0  0  0  0  0  0  0
   -0.4755    1.2868    1.6169 H   0  0  0  0  0  0  0  0  0  0  0  0
    0.2782   -0.3209    2.6862 O   0  0  0  0  0  0  0  0  0  0  0  0
    0.8790   -1.0865    2.5265 H   0  0  0  0  0  0  0  0  0  0  0  0
    1.5042   -1.1332    0.1139 C   0  0  0  0  0  0  0  0  0  0  0  0
    1.8436   -1.8734    1.0332 O   0  0  0  0  0  0  0  0  0  0  0  0
    2.5194   -0.7116   -0.7300 N   0  0  0  0  0  0  0  0  0  0  0  0
    2.2664   -0.0767   -1.4801 H   0  0  0  0  0  0  0  0  0  0  0  0
    3.8375   -1.3373   -0.7676 C   0  0  0  0  0  0  0  0  0  0  0  0
    3.7489   -2.4036   -1.0012 H   0  0  0  0  0  0  0  0  0  0  0  0
    4.4586   -0.8654   -1.5349 H   0  0  0  0  0  0  0  0  0  0  0  0
    4.3429   -1.2288    0.1979 H   0  0  0  0  0  0  0  0  0  0  0  0
  1  2  1  0  0  0  0
  2  3  1  0  0  0  0
  2  4  1  0  0  0  0
  2  5  1  0  0  0  0
  5  6  2  0  0  0  0
  5  7  1  0  0  0  0
  7  8  1  0  0  0  0
  7  9  1  0  0  0  0
  9 10  1  0  0  0  0
  9 11  1  0  0  0  0
  9 16  1  0  0  0  0
 11 12  1  0  0  0  0
 11 13  1  0  0  0  0
 11 14  1  0  0  0  0
 14 15  1  0  0  0  0
 16 17  2  0  0  0  0
 16 18  1  0  0  0  0
 18 19  1  0  0  0  0
 18 20  1  0  0  0  0
 20 21  1  0  0  0  0
 20 22  1  0  0  0  0
 20 23  1  0  0  0  0
M  END
$$$$

  -OEChem-01062216093D

 23 22  0     1  0  0  0  0  0999 V2000
   -2.8056   -3.6868    1.0012 H   0  0  0  0  0  0  0  0  0  0  0  0
   -2.6912   -2.6798    0.5898 C   0  0  0  0  0  0  0  0  0  0  0  0
   -3.5604   -2.0821    0.8730 H   0  0  0  0  0  0  0  0  0  0  0  0
   -2.6408   -2.7518   -0.4990 H   0  0  0  0  0  0  0  0  0  0  0  0
   -1.4235   -2.0405    1.1257 C   0  0  0  0  0  0  0  0  0  0  0  0
   -0.8341   -2.5914    2.0377 O   0  0  0  0  0  0  0  0  0  0  0  0
   -1.0872   -0.7683    0.6932 N   0  0  0  0  0  0  0  0  0  0  0  0
   -1.7458   -0.4026    0.0157 H   0  0  0  0  0  0  0  0  0  0  0  0
    0.2896   -0.2162    0.5978 C   0  0  1  0  0  0  0  0  0  0  0  0
    0.2627    0.4565   -0.2627 H   0  0  0  0  0  0  0  0  0  0  0  0
    0.6200    0.6604    1.8196 C   0  0  0  0  0  0  0  0  0  0  0  0
    1.5767    1.1693    1.6641 H   0  0  0  0  0  0  0  0  0  0  0  0
   -0.1515    1.4308    1.9184 H   0  0  0  0  0  0  0  0  0  0  0  0
    0.6795   -0.0887    3.0326 O   0  0  0  0  0  0  0  0  0  0  0  0
    0.7496    0.4850    3.8130 H   0  0  0  0  0  0  0  0  0  0  0  0
    1.4871   -1.1629    0.3015 C   0  0  0  0  0  0  0  0  0  0  0  0
    1.3739   -2.3760    0.1889 O   0  0  0  0  0  0  0  0  0  0  0  0
    2.5670   -0.6183   -0.3801 N   0  0  0  0  0  0  0  0  0  0  0  0
    2.6761    0.3895   -0.3486 H   0  0  0  0  0  0  0  0  0  0  0  0
    3.6615   -1.4170   -0.9239 C   0  0  0  0  0  0  0  0  0  0  0  0
    3.2953   -2.0846   -1.7111 H   0  0  0  0  0  0  0  0  0  0  0  0
    4.4281   -0.7655   -1.3540 H   0  0  0  0  0  0  0  0  0  0  0  0
    4.1234   -2.0215   -0.1360 H   0  0  0  0  0  0  0  0  0  0  0  0
  1  2  1  0  0  0  0
  2  3  1  0  0  0  0
  2  4  1  0  0  0  0
  2  5  1  0  0  0  0
  5  6  2  0  0  0  0
  5  7  1  0  0  0  0
  7  8  1  0  0  0  0
  7  9  1  0  0  0  0
  9 10  1  0  0  0  0
  9 11  1  0  0  0  0
  9 16  1  0  0  0  0
 11 12  1  0  0  0  0
 11 13  1  0  0  0  0
 11 14  1  0  0  0  0
 14 15  1  0  0  0  0
 16 17  2  0  0  0  0
 16 18  1  0  0  0  0
 18 19  1  0  0  0  0
 18 20  1  0  0  0  0
 20 21  1  0  0  0  0
 20 22  1  0  0  0  0
 20 23  1  0  0  0  0
M  END
$$$$

  -OEChem-01062216093D

 23 22  0     1  0  0  0  0  0999 V2000
   -2.8148   -3.6684    1.0574 H   0  0  0  0  0  0  0  0  0  0  0  0
   -2.6956   -2.6757    0.6141 C   0  0  0  0  0  0  0  0  0  0  0  0
   -3.5487   -2.0569    0.9014 H   0  0  0  0  0  0  0  0  0  0  0  0
   -2.6733   -2.7789   -0.4732 H   0  0  0  0  0  0  0  0  0  0  0  0
   -1.4050   -2.0415    1.0989 C   0  0  0  0  0  0  0  0  0  0  0  0
   -0.7529   -2.6181    1.9516 O   0  0  0  0  0  0  0  0  0  0  0  0
   -1.0892   -0.7616    0.6729 N   0  0  0  0  0  0  0  0  0  0  0  0
   -1.7548   -0.3927    0.0037 H   0  0  0  0  0  0  0  0  0  0  0  0
    0.2835   -0.1994    0.5893 C   0  0  1  0  0  0  0  0  0  0  0  0
    0.2725    0.4794   -0.2672 H   0  0  0  0  0  0  0  0  0  0  0  0
    0.5957    0.6644    1.8258 C   0  0  0  0  0  0  0  0  0  0  0  0
    1.5460    1.1887    1.6861 H   0  0  0  0  0  0  0  0  0  0  0  0
   -0.1860    1.4240    1.9278 H   0  0  0  0  0  0  0  0  0  0  0  0
    0.6530   -0.0991    3.0304 O   0  0  0  0  0  0  0  0  0  0  0  0
    0.7027    0.4666    3.8185 H   0  0  0  0  0  0  0  0  0  0  0  0
    1.4679   -1.1615    0.2949 C   0  0  0  0  0  0  0  0  0  0  0  0
    1.2792   -2.2955   -0.1304 O   0  0  0  0  0  0  0  0  0  0  0  0
    2.6778   -0.5973   -0.0846 N   0  0  0  0  0  0  0  0  0  0  0  0
    2.8634    0.3452    0.2409 H   0  0  0  0  0  0  0  0  0  0  0  0
    3.7968   -1.3791   -0.6020 C   0  0  0  0  0  0  0  0  0  0  0  0
    3.5378   -1.8287   -1.5664 H   0  0  0  0  0  0  0  0  0  0  0  0
    4.6718   -0.7381   -0.7450 H   0  0  0  0  0  0  0  0  0  0  0  0
    4.0639   -2.1776    0.0984 H   0  0  0  0  0  0  0  0  0  0  0  0
  1  2  1  0  0  0  0
  2  3  1  0  0  0  0
  2  4  1  0  0  0  0
  2  5  1  0  0  0  0
  5  6  2  0  0  0  0
  5  7  1  0  0  0  0
  7  8  1  0  0  0  0
  7  9  1  0  0  0  0
  9 10  1  0  0  0  0
  9 11  1  0  0  0  0
  9 16  1  0  0  0  0
 11 12  1  0  0  0  0
 11 13  1  0  0  0  0
 11 14  1  0  0  0  0
 14 15  1  0  0  0  0
 16 17  2  0  0  0  0
 16 18  1  0  0  0  0
 18 19  1  0  0  0  0
 18 20  1  0  0  0  0
 20 21  1  0  0  0  0
 20 22  1  0  0  0  0
 20 23  1  0  0  0  0
M  END
$$$$

  -OEChem-01062216093D

 23 22  0     1  0  0  0  0  0999 V2000
   -2.7466   -3.7054    1.0323 H   0  0  0  0  0  0  0  0  0  0  0  0
   -2.6809   -2.6803    0.6570 C   0  0  0  0  0  0  0  0  0  0  0  0
   -3.4689   -2.0839    1.1223 H   0  0  0  0  0  0  0  0  0  0  0  0
   -2.8291   -2.6934   -0.4254 H   0  0  0  0  0  0  0  0  0  0  0  0
   -1.3212   -2.0918    0.9845 C   0  0  0  0  0  0  0  0  0  0  0  0
   -0.5163   -2.7785    1.5894 O   0  0  0  0  0  0  0  0  0  0  0  0
   -1.0588   -0.7824    0.6145 N   0  0  0  0  0  0  0  0  0  0  0  0
   -1.7726   -0.3676    0.0260 H   0  0  0  0  0  0  0  0  0  0  0  0
    0.2890   -0.1649    0.5648 C   0  0  1  0  0  0  0  0  0  0  0  0
    0.1956    0.7019   -0.0943 H   0  0  0  0  0  0  0  0  0  0  0  0
    0.7401    0.3996    1.9279 C   0  0  0  0  0  0  0  0  0  0  0  0
    1.6611    0.9778    1.8064 H   0  0  0  0  0  0  0  0  0  0  0  0
   -0.0313    1.0894    2.2847 H   0  0  0  0  0  0  0  0  0  0  0  0
    0.9438   -0.6032    2.9215 O   0  0  0  0  0  0  0  0  0  0  0  0
    1.0296   -0.2222    3.8109 H   0  0  0  0  0  0  0  0  0  0  0  0
    1.3874   -1.0304   -0.1056 C   0  0  0  0  0  0  0  0  0  0  0  0
    1.0714   -1.8826   -0.9304 O   0  0  0  0  0  0  0  0  0  0  0  0
    2.6820   -0.5422   -0.1947 N   0  0  0  0  0  0  0  0  0  0  0  0
    2.9655    0.1001    0.5379 H   0  0  0  0  0  0  0  0  0  0  0  0
    3.7298   -1.2275   -0.9443 C   0  0  0  0  0  0  0  0  0  0  0  0
    3.4817   -1.2588   -2.0106 H   0  0  0  0  0  0  0  0  0  0  0  0
    4.6827   -0.7024   -0.8289 H   0  0  0  0  0  0  0  0  0  0  0  0
    3.8526   -2.2534   -0.5810 H   0  0  0  0  0  0  0  0  0  0  0  0
  1  2  1  0  0  0  0
  2  3  1  0  0  0  0
  2  4  1  0  0  0  0
  2  5  1  0  0  0  0
  5  6  2  0  0  0  0
  5  7  1  0  0  0  0
  7  8  1  0  0  0  0
  7  9  1  0  0  0  0
  9 10  1  0  0  0  0
  9 11  1  0  0  0  0
  9 16  1  0  0  0  0
 11 12  1  0  0  0  0
 11 13  1  0  0  0  0
 11 14  1  0  0  0  0
 14 15  1  0  0  0  0
 16 17  2  0  0  0  0
 16 18  1  0  0  0  0
 18 19  1  0  0  0  0
 18 20  1  0  0  0  0
 20 21  1  0  0  0  0
 20 22  1  0  0  0  0
 20 23  1  0  0  0  0
M  END
$$$$

  -OEChem-01062216093D

 23 22  0     1  0  0  0  0  0999 V2000
   -2.6870   -3.7362    0.9682 H   0  0  0  0  0  0  0  0  0  0  0  0
   -2.6620   -2.6857    0.6647 C   0  0  0  0  0  0  0  0  0  0  0  0
   -3.4347   -2.1419    1.2128 H   0  0  0  0  0  0  0  0  0  0  0  0
   -2.8696   -2.6263   -0.4064 H   0  0  0  0  0  0  0  0  0  0  0  0
   -1.2986   -2.0892    0.9604 C   0  0  0  0  0  0  0  0  0  0  0  0
   -0.4628   -2.7801    1.5170 O   0  0  0  0  0  0  0  0  0  0  0  0
   -1.0555   -0.7748    0.5981 N   0  0  0  0  0  0  0  0  0  0  0  0
   -1.7827   -0.3524    0.0319 H   0  0  0  0  0  0  0  0  0  0  0  0
    0.2828   -0.1387    0.5617 C   0  0  1  0  0  0  0  0  0  0  0  0
    0.1904    0.7279   -0.0978 H   0  0  0  0  0  0  0  0  0  0  0  0
    0.7178    0.4275    1.9296 C   0  0  0  0  0  0  0  0  0  0  0  0
    1.6301    1.0212    1.8147 H   0  0  0  0  0  0  0  0  0  0  0  0
   -0.0661    1.1046    2.2841 H   0  0  0  0  0  0  0  0  0  0  0  0
    0.9293   -0.5769    2.9213 O   0  0  0  0  0  0  0  0  0  0  0  0
    0.9899   -0.1975    3.8139 H   0  0  0  0  0  0  0  0  0  0  0  0
    1.3784   -1.0063   -0.1075 C   0  0  0  0  0  0  0  0  0  0  0  0
    1.0776   -1.6978   -1.0762 O   0  0  0  0  0  0  0  0  0  0  0  0
    2.7187   -0.6978    0.0591 N   0  0  0  0  0  0  0  0  0  0  0  0
    2.9512   -0.2609    0.9460 H   0  0  0  0  0  0  0  0  0  0  0  0
    3.7747   -1.4275   -0.6334 C   0  0  0  0  0  0  0  0  0  0  0  0
    3.6780   -1.3078   -1.7176 H   0  0  0  0  0  0  0  0  0  0  0  0
    4.7558   -1.0480   -0.3327 H   0  0  0  0  0  0  0  0  0  0  0  0
    3.7247   -2.4943   -0.3908 H   0  0  0  0  0  0  0  0  0  0  0  0
  1  2  1  0  0  0  0
  2  3  1  0  0  0  0
  2  4  1  0  0  0  0
  2  5  1  0  0  0  0
  5  6  2  0  0  0  0
  5  7  1  0  0  0  0
  7  8  1  0  0  0  0
  7  9  1  0  0  0  0
  9 10  1  0  0  0  0
  9 11  1  0  0  0  0
  9 16  1  0  0  0  0
 11 12  1  0  0  0  0
 11 13  1  0  0  0  0
 11 14  1  0  0  0  0
 14 15  1  0  0  0  0
 16 17  2  0  0  0  0
 16 18  1  0  0  0  0
 18 19  1  0  0  0  0
 18 20  1  0  0  0  0
 20 21  1  0  0  0  0
 20 22  1  0  0  0  0
 20 23  1  0  0  0  0
M  END
$$$$

  -OEChem-01062216093D

 23 22  0     1  0  0  0  0  0999 V2000
   -2.6663   -3.7382    0.9796 H   0  0  0  0  0  0  0  0  0  0  0  0
   -2.6509   -2.6874    0.6765 C   0  0  0  0  0  0  0  0  0  0  0  0
   -3.4080   -2.1455    1.2478 H   0  0  0  0  0  0  0  0  0  0  0  0
   -2.8901   -2.6266   -0.3878 H   0  0  0  0  0  0  0  0  0  0  0  0
   -1.2800   -2.0900    0.9337 C   0  0  0  0  0  0  0  0  0  0  0  0
   -0.4203   -2.7874    1.4444 O   0  0  0  0  0  0  0  0  0  0  0  0
   -1.0494   -0.7712    0.5802 N   0  0  0  0  0  0  0  0  0  0  0  0
   -1.7916   -0.3345    0.0445 H   0  0  0  0  0  0  0  0  0  0  0  0
    0.2808   -0.1198    0.5565 C   0  0  1  0  0  0  0  0  0  0  0  0
    0.1870    0.7485   -0.1006 H   0  0  0  0  0  0  0  0  0  0  0  0
    0.7033    0.4438    1.9291 C   0  0  0  0  0  0  0  0  0  0  0  0
    1.6109    1.0463    1.8193 H   0  0  0  0  0  0  0  0  0  0  0  0
   -0.0884    1.1116    2.2836 H   0  0  0  0  0  0  0  0  0  0  0  0
    0.9212   -0.5653    2.9160 O   0  0  0  0  0  0  0  0  0  0  0  0
    0.9664   -0.1894    3.8114 H   0  0  0  0  0  0  0  0  0  0  0  0
    1.3785   -0.9832   -0.1112 C   0  0  0  0  0  0  0  0  0  0  0  0
    1.1322   -1.5089   -1.1927 O   0  0  0  0  0  0  0  0  0  0  0  0
    2.7017   -0.8875    0.2835 N   0  0  0  0  0  0  0  0  0  0  0  0
    2.8248   -0.6431    1.2633 H   0  0  0  0  0  0  0  0  0  0  0  0
    3.7533   -1.6715   -0.3529 C   0  0  0  0  0  0  0  0  0  0  0  0
    3.8367   -1.4141   -1.4140 H   0  0  0  0  0  0  0  0  0  0  0  0
    4.7165   -1.4709    0.1256 H   0  0  0  0  0  0  0  0  0  0  0  0
    3.5376   -2.7418   -0.2658 H   0  0  0  0  0  0  0  0  0  0  0  0
  1  2  1  0  0  0  0
  2  3  1  0  0  0  0
  2  4  1  0  0  0  0
  2  5  1  0  0  0  0
  5  6  2  0  0  0  0
  5  7  1  0  0  0  0
  7  8  1  0  0  0  0
  7  9  1  0  0  0  0
  9 10  1  0  0  0  0
  9 11  1  0  0  0  0
  9 16  1  0  0  0  0
 11 12  1  0  0  0  0
 11 13  1  0  0  0  0
 11 14  1  0  0  0  0
 14 15  1  0  0  0  0
 16 17  2  0  0  0  0
 16 18  1  0  0  0  0
 18 19  1  0  0  0  0
 18 20  1  0  0  0  0
 20 21  1  0  0  0  0
 20 22  1  0  0  0  0
 20 23  1  0  0  0  0
M  END
$$$$

  -OEChem-01062216093D

 23 22  0     1  0  0  0  0  0999 V2000
   -2.6643   -3.7336    0.9794 H   0  0  0  0  0  0  0  0  0  0  0  0
   -2.6520   -2.6793    0.6892 C   0  0  0  0  0  0  0  0  0  0  0  0
   -3.3868   -2.1399    1.2913 H   0  0  0  0  0  0  0  0  0  0  0  0
   -2.9250   -2.6031   -0.3660 H   0  0  0  0  0  0  0  0  0  0  0  0
   -1.2701   -2.0934    0.9104 C   0  0  0  0  0  0  0  0  0  0  0  0
   -0.3964   -2.8016    1.3814 O   0  0  0  0  0  0  0  0  0  0  0  0
   -1.0409   -0.7737    0.5613 N   0  0  0  0  0  0  0  0  0  0  0  0
   -1.7975   -0.3177    0.0630 H   0  0  0  0  0  0  0  0  0  0  0  0
    0.2841   -0.1137    0.5472 C   0  0  1  0  0  0  0  0  0  0  0  0
    0.1899    0.7567   -0.1078 H   0  0  0  0  0  0  0  0  0  0  0  0
    0.6926    0.4464    1.9256 C   0  0  0  0  0  0  0  0  0  0  0  0
    1.5996    1.0511    1.8224 H   0  0  0  0  0  0  0  0  0  0  0  0
   -0.1035    1.1104    2.2767 H   0  0  0  0  0  0  0  0  0  0  0  0
    0.9103   -0.5665    2.9106 O   0  0  0  0  0  0  0  0  0  0  0  0
    0.9561   -0.1896    3.8059 H   0  0  0  0  0  0  0  0  0  0  0  0
    1.3879   -0.9713   -0.1141 C   0  0  0  0  0  0  0  0  0  0  0  0
    1.2293   -1.3341   -1.2755 O   0  0  0  0  0  0  0  0  0  0  0  0
    2.6345   -1.1095    0.4679 N   0  0  0  0  0  0  0  0  0  0  0  0
    2.6175   -1.0217    1.4832 H   0  0  0  0  0  0  0  0  0  0  0  0
    3.6723   -1.9451   -0.1219 C   0  0  0  0  0  0  0  0  0  0  0  0
    3.9367   -1.5824   -1.1207 H   0  0  0  0  0  0  0  0  0  0  0  0
    4.5721   -1.9241    0.5003 H   0  0  0  0  0  0  0  0  0  0  0  0
    3.3281   -2.9816   -0.2027 H   0  0  0  0  0  0  0  0  0  0  0  0
  1  2  1  0  0  0  0
  2  3  1  0  0  0  0
  2  4  1  0  0  0  0
  2  5  1  0  0  0  0
  5  6  2  0  0  0  0
  5  7  1  0  0  0  0
  7  8  1  0  0  0  0
  7  9  1  0  0  0  0
  9 10  1  0  0  0  0
  9 11  1  0  0  0  0
  9 16  1  0  0  0  0
 11 12  1  0  0  0  0
 11 13  1  0  0  0  0
 11 14  1  0  0  0  0
 14 15  1  0  0  0  0
 16 17  2  0  0  0  0
 16 18  1  0  0  0  0
 18 19  1  0  0  0  0
 18 20  1  0  0  0  0
 20 21  1  0  0  0  0
 20 22  1  0  0  0  0
 20 23  1  0  0  0  0
M  END
$$$$

  -OEChem-01062216093D

 23 22  0     1  0  0  0  0  0999 V2000
   -2.6709   -3.7266    0.9869 H   0  0  0  0  0  0  0  0  0  0  0  0
   -2.6573   -2.6707    0.7016 C   0  0  0  0  0  0  0  0  0  0  0  0
   -3.3688   -2.1282    1.3284 H   0  0  0  0  0  0  0  0  0  0  0  0
   -2.9616   -2.5866   -0.3446 H   0  0  0  0  0  0  0  0  0  0  0  0
   -1.2638   -2.0984    0.8835 C   0  0  0  0  0  0  0  0  0  0  0  0
   -0.3800   -2.8195    1.3145 O   0  0  0  0  0  0  0  0  0  0  0  0
   -1.0321   -0.7781    0.5393 N   0  0  0  0  0  0  0  0  0  0  0  0
   -1.8041   -0.2971    0.0905 H   0  0  0  0  0  0  0  0  0  0  0  0
    0.2902   -0.1137    0.5365 C   0  0  1  0  0  0  0  0  0  0  0  0
    0.1977    0.7599   -0.1145 H   0  0  0  0  0  0  0  0  0  0  0  0
    0.6764    0.4405    1.9239 C   0  0  0  0  0  0  0  0  0  0  0  0
    1.5858    1.0440    1.8323 H   0  0  0  0  0  0  0  0  0  0  0  0
   -0.1240    1.1037    2.2671 H   0  0  0  0  0  0  0  0  0  0  0  0
    0.8857   -0.5748    2.9111 O   0  0  0  0  0  0  0  0  0  0  0  0
    0.9657   -0.1913    3.8016 H   0  0  0  0  0  0  0  0  0  0  0  0
    1.4081   -0.9591   -0.1156 C   0  0  0  0  0  0  0  0  0  0  0  0
    1.3630   -1.1594   -1.3248 O   0  0  0  0  0  0  0  0  0  0  0  0
    2.5275   -1.3432    0.5974 N   0  0  0  0  0  0  0  0  0  0  0  0
    2.3692   -1.3715    1.6056 H   0  0  0  0  0  0  0  0  0  0  0  0
    3.5308   -2.2397    0.0394 C   0  0  0  0  0  0  0  0  0  0  0  0
    3.9770   -1.8050   -0.8611 H   0  0  0  0  0  0  0  0  0  0  0  0
    4.3281   -2.4132    0.7684 H   0  0  0  0  0  0  0  0  0  0  0  0
    3.0798   -3.2034   -0.2202 H   0  0  0  0  0  0  0  0  0  0  0  0
  1  2  1  0  0  0  0
  2  3  1  0  0  0  0
  2  4  1  0  0  0  0
  2  5  1  0  0  0  0
  5  6  2  0  0  0  0
  5  7  1  0  0  0  0
  7  8  1  0  0  0  0
  7  9  1  0  0  0  0
  9 10  1  0  0  0  0
  9 11  1  0  0  0  0
  9 16  1  0  0  0  0
 11 12  1  0  0  0  0
 11 13  1  0  0  0  0
 11 14  1  0  0  0  0
 14 15  1  0  0  0  0
 16 17  2  0  0  0  0
 16 18  1  0  0  0  0
 18 19  1  0  0  0  0
 18 20  1  0  0  0  0
 20 21  1  0  0  0  0
 20 22  1  0  0  0  0
 20 23  1  0  0  0  0
M  END
$$$$

  -OEChem-01062216093D

 23 22  0     1  0  0  0  0  0999 V2000
   -2.7097   -3.7063    1.0001 H   0  0  0  0  0  0  0  0  0  0  0  0
   -2.6838   -2.6495    0.7193 C   0  0  0  0  0  0  0  0  0  0  0  0
   -3.3641   -2.0957    1.3703 H   0  0  0  0  0  0  0  0  0  0  0  0
   -3.0190   -2.5536   -0.3162 H   0  0  0  0  0  0  0  0  0  0  0  0
   -1.2742   -2.1063    0.8616 C   0  0  0  0  0  0  0  0  0  0  0  0
   -0.3932   -2.8456    1.2666 O   0  0  0  0  0  0  0  0  0  0  0  0
   -1.0260   -0.7900    0.5146 N   0  0  0  0  0  0  0  0  0  0  0  0
   -1.8075   -0.2817    0.1145 H   0  0  0  0  0  0  0  0  0  0  0  0
    0.2979   -0.1286    0.5217 C   0  0  1  0  0  0  0  0  0  0  0  0
    0.2095    0.7455   -0.1296 H   0  0  0  0  0  0  0  0  0  0  0  0
    0.6596    0.4230    1.9165 C   0  0  0  0  0  0  0  0  0  0  0  0
    1.5751    1.0192    1.8388 H   0  0  0  0  0  0  0  0  0  0  0  0
   -0.1415    1.0913    2.2476 H   0  0  0  0  0  0  0  0  0  0  0  0
    0.8502   -0.5948    2.9068 O   0  0  0  0  0  0  0  0  0  0  0  0
    0.9767   -0.2071    3.7901 H   0  0  0  0  0  0  0  0  0  0  0  0
    1.4353   -0.9627   -0.1102 C   0  0  0  0  0  0  0  0  0  0  0  0
    1.5366   -0.9908   -1.3318 O   0  0  0  0  0  0  0  0  0  0  0  0
    2.3866   -1.5898    0.6696 N   0  0  0  0  0  0  0  0  0  0  0  0
    2.0868   -1.7233    1.6375 H   0  0  0  0  0  0  0  0  0  0  0  0
    3.3609   -2.5202    0.1176 C   0  0  0  0  0  0  0  0  0  0  0  0
    3.9667   -2.0315   -0.6526 H   0  0  0  0  0  0  0  0  0  0  0  0
    4.0302   -2.8759    0.9066 H   0  0  0  0  0  0  0  0  0  0  0  0
    2.8547   -3.3839   -0.3259 H   0  0  0  0  0  0  0  0  0  0  0  0
  1  2  1  0  0  0  0
  2  3  1  0  0  0  0
  2  4  1  0  0  0  0
  2  5  1  0  0  0  0
  5  6  2  0  0  0  0
  5  7  1  0  0  0  0
  7  8  1  0  0  0  0
  7  9  1  0  0  0  0
  9 10  1  0  0  0  0
  9 11  1  0  0  0  0
  9 16  1  0  0  0  0
 11 12  1  0  0  0  0
 11 13  1  0  0  0  0
 11 14  1  0  0  0  0
 14 15  1  0  0  0  0
 16 17  2  0  0  0  0
 16 18  1  0  0  0  0
 18 19  1  0  0  0  0
 18 20  1  0  0  0  0
 20 21  1  0  0  0  0
 20 22  1  0  0  0  0
 20 23  1  0  0  0  0
M  END
$$$$

  -OEChem-01062216093D

 23 22  0     1  0  0  0  0  0999 V2000
   -2.7853   -3.6721    1.0271 H   0  0  0  0  0  0  0  0  0  0  0  0
   -2.7336   -2.6189    0.7366 C   0  0  0  0  0  0  0  0  0  0  0  0
   -3.3929   -2.0414    1.3888 H   0  0  0  0  0  0  0  0  0  0  0  0
   -3.0763   -2.5230   -0.2965 H   0  0  0  0  0  0  0  0  0  0  0  0
   -1.3086   -2.1124    0.8609 C   0  0  0  0  0  0  0  0  0  0  0  0
   -0.4465   -2.8718    1.2688 O   0  0  0  0  0  0  0  0  0  0  0  0
   -1.0297   -0.8058    0.5008 N   0  0  0  0  0  0  0  0  0  0  0  0
   -1.8108   -0.2738    0.1315 H   0  0  0  0  0  0  0  0  0  0  0  0
    0.3012   -0.1558    0.5087 C   0  0  1  0  0  0  0  0  0  0  0  0
    0.2188    0.7156   -0.1473 H   0  0  0  0  0  0  0  0  0  0  0  0
    0.6490    0.4003    1.9037 C   0  0  0  0  0  0  0  0  0  0  0  0
    1.5728    0.9842    1.8329 H   0  0  0  0  0  0  0  0  0  0  0  0
   -0.1477    1.0798    2.2227 H   0  0  0  0  0  0  0  0  0  0  0  0
    0.8180   -0.6165    2.8988 O   0  0  0  0  0  0  0  0  0  0  0  0
    1.0027   -0.2276    3.7710 H   0  0  0  0  0  0  0  0  0  0  0  0
    1.4575   -0.9842   -0.0970 C   0  0  0  0  0  0  0  0  0  0  0  0
    1.7295   -0.8347   -1.2831 O   0  0  0  0  0  0  0  0  0  0  0  0
    2.2202   -1.8381    0.6736 N   0  0  0  0  0  0  0  0  0  0  0  0
    1.7757   -2.0839    1.5615 H   0  0  0  0  0  0  0  0  0  0  0  0
    3.1836   -2.7685    0.1035 C   0  0  0  0  0  0  0  0  0  0  0  0
    3.9353   -2.2321   -0.4847 H   0  0  0  0  0  0  0  0  0  0  0  0
    3.6966   -3.3136    0.9014 H   0  0  0  0  0  0  0  0  0  0  0  0
    2.6775   -3.4920   -0.5441 H   0  0  0  0  0  0  0  0  0  0  0  0
  1  2  1  0  0  0  0
  2  3  1  0  0  0  0
  2  4  1  0  0  0  0
  2  5  1  0  0  0  0
  5  6  2  0  0  0  0
  5  7  1  0  0  0  0
  7  8  1  0  0  0  0
  7  9  1  0  0  0  0
  9 10  1  0  0  0  0
  9 11  1  0  0  0  0
  9 16  1  0  0  0  0
 11 12  1  0  0  0  0
 11 13  1  0  0  0  0
 11 14  1  0  0  0  0
 14 15  1  0  0  0  0
 16 17  2  0  0  0  0
 16 18  1  0  0  0  0
 18 19  1  0  0  0  0
 18 20  1  0  0  0  0
 20 21  1  0  0  0  0
 20 22  1  0  0  0  0
 20 23  1  0  0  0  0
M  END
$$$$

  -OEChem-01062216093D

 23 22  0     1  0  0  0  0  0999 V2000
   -2.9099   -3.6184    1.0603 H   0  0  0  0  0  0  0  0  0  0  0  0
   -2.8169   -2.5708    0.7598 C   0  0  0  0  0  0  0  0  0  0  0  0
   -3.4525   -1.9624    1.4076 H   0  0  0  0  0  0  0  0  0  0  0  0
   -3.1570   -2.4712   -0.2739 H   0  0  0  0  0  0  0  0  0  0  0  0
   -1.3732   -2.1184    0.8776 C   0  0  0  0  0  0  0  0  0  0  0  0
   -0.5444   -2.9062    1.2997 O   0  0  0  0  0  0  0  0  0  0  0  0
   -1.0491   -0.8276    0.4984 N   0  0  0  0  0  0  0  0  0  0  0  0
   -1.8209   -0.2742    0.1412 H   0  0  0  0  0  0  0  0  0  0  0  0
    0.2935   -0.1972    0.4943 C   0  0  1  0  0  0  0  0  0  0  0  0
    0.2147    0.6690   -0.1696 H   0  0  0  0  0  0  0  0  0  0  0  0
    0.6489    0.3672    1.8821 C   0  0  0  0  0  0  0  0  0  0  0  0
    1.5827    0.9344    1.8069 H   0  0  0  0  0  0  0  0  0  0  0  0
   -0.1355    1.0625    2.1971 H   0  0  0  0  0  0  0  0  0  0  0  0
    0.8010   -0.6481    2.8798 O   0  0  0  0  0  0  0  0  0  0  0  0
    1.0424   -0.2644    3.7401 H   0  0  0  0  0  0  0  0  0  0  0  0
    1.4644   -1.0233   -0.0888 C   0  0  0  0  0  0  0  0  0  0  0  0
    1.9218   -0.6989   -1.1791 O   0  0  0  0  0  0  0  0  0  0  0  0
    2.0388   -2.0752    0.5944 N   0  0  0  0  0  0  0  0  0  0  0  0
    1.4647   -2.4241    1.3678 H   0  0  0  0  0  0  0  0  0  0  0  0
    3.0289   -2.9657    0.0068 C   0  0  0  0  0  0  0  0  0  0  0  0
    3.8925   -2.3967   -0.3529 H   0  0  0  0  0  0  0  0  0  0  0  0
    3.3783   -3.6840    0.7546 H   0  0  0  0  0  0  0  0  0  0  0  0
    2.5948   -3.5183   -0.8327 H   0  0  0  0  0  0  0  0  0  0  0  0
  1  2  1  0  0  0  0
  2  3  1  0  0  0  0
  2  4  1  0  0  0  0
  2  5  1  0  0  0  0
  5  6  2  0  0  0  0
  5  7  1  0  0  0  0
  7  8  1  0  0  0  0
  7  9  1  0  0  0  0
  9 10  1  0  0  0  0
  9 11  1  0  0  0  0
  9 16  1  0  0  0  0
 11 12  1  0  0  0  0
 11 13  1  0  0  0  0
 11 14  1  0  0  0  0
 14 15  1  0  0  0  0
 16 17  2  0  0  0  0
 16 18  1  0  0  0  0
 18 19  1  0  0  0  0
 18 20  1  0  0  0  0
 20 21  1  0  0  0  0
 20 22  1  0  0  0  0
 20 23  1  0  0  0  0
M  END
$$$$

  -OEChem-01062216093D

 23 22  0     1  0  0  0  0  0999 V2000
   -3.0576   -3.5371    1.1337 H   0  0  0  0  0  0  0  0  0  0  0  0
   -2.9156   -2.5046    0.8015 C   0  0  0  0  0  0  0  0  0  0  0  0
   -3.5085   -1.8461    1.4408 H   0  0  0  0  0  0  0  0  0  0  0  0
   -3.2670   -2.4167   -0.2294 H   0  0  0  0  0  0  0  0  0  0  0  0
   -1.4486   -2.1247    0.8843 C   0  0  0  0  0  0  0  0  0  0  0  0
   -0.6545   -2.9534    1.2930 O   0  0  0  0  0  0  0  0  0  0  0  0
   -1.0758   -0.8517    0.4892 N   0  0  0  0  0  0  0  0  0  0  0  0
   -1.8408   -0.2660    0.1714 H   0  0  0  0  0  0  0  0  0  0  0  0
    0.2786   -0.2420    0.4686 C   0  0  1  0  0  0  0  0  0  0  0  0
    0.2015    0.6212   -0.1993 H   0  0  0  0  0  0  0  0  0  0  0  0
    0.6473    0.3212    1.8514 C   0  0  0  0  0  0  0  0  0  0  0  0
    1.5888    0.8755    1.7731 H   0  0  0  0  0  0  0  0  0  0  0  0
   -0.1264    1.0270    2.1699 H   0  0  0  0  0  0  0  0  0  0  0  0
    0.7865   -0.7004    2.8435 O   0  0  0  0  0  0  0  0  0  0  0  0
    1.0568   -0.3268    3.6994 H   0  0  0  0  0  0  0  0  0  0  0  0
    1.4639   -1.0609   -0.0985 C   0  0  0  0  0  0  0  0  0  0  0  0
    2.0883   -0.5931   -1.0441 O   0  0  0  0  0  0  0  0  0  0  0  0
    1.8679   -2.2708    0.4259 N   0  0  0  0  0  0  0  0  0  0  0  0
    1.2212   -2.6803    1.1074 H   0  0  0  0  0  0  0  0  0  0  0  0
    2.8982   -3.1122   -0.1648 C   0  0  0  0  0  0  0  0  0  0  0  0
    3.8417   -2.5631   -0.2492 H   0  0  0  0  0  0  0  0  0  0  0  0
    3.0681   -3.9929    0.4619 H   0  0  0  0  0  0  0  0  0  0  0  0
    2.5931   -3.4472   -1.1614 H   0  0  0  0  0  0  0  0  0  0  0  0
  1  2  1  0  0  0  0
  2  3  1  0  0  0  0
  2  4  1  0  0  0  0
  2  5  1  0  0  0  0
  5  6  2  0  0  0  0
  5  7  1  0  0  0  0
  7  8  1  0  0  0  0
  7  9  1  0  0  0  0
  9 10  1  0  0  0  0
  9 11  1  0  0  0  0
  9 16  1  0  0  0  0
 11 12  1  0  0  0  0
 11 13  1  0  0  0  0
 11 14  1  0  0  0  0
 14 15  1  0  0  0  0
 16 17  2  0  0  0  0
 16 18  1  0  0  0  0
 18 19  1  0  0  0  0
 18 20  1  0  0  0  0
 20 21  1  0  0  0  0
 20 22  1  0  0  0  0
 20 23  1  0  0  0  0
M  END
$$$$

  -OEChem-01062216093D

 23 22  0     1  0  0  0  0  0999 V2000
   -3.1903   -3.4549    1.2210 H   0  0  0  0  0  0  0  0  0  0  0  0
   -3.0140   -2.4351    0.8670 C   0  0  0  0  0  0  0  0  0  0  0  0
   -3.5583   -1.7414    1.5125 H   0  0  0  0  0  0  0  0  0  0  0  0
   -3.3925   -2.3481   -0.1544 H   0  0  0  0  0  0  0  0  0  0  0  0
   -1.5302   -2.1182    0.8996 C   0  0  0  0  0  0  0  0  0  0  0  0
   -0.7613   -2.9819    1.2825 O   0  0  0  0  0  0  0  0  0  0  0  0
   -1.1219   -0.8596    0.4927 N   0  0  0  0  0  0  0  0  0  0  0  0
   -1.8796   -0.2471    0.2095 H   0  0  0  0  0  0  0  0  0  0  0  0
    0.2460   -0.2794    0.4311 C   0  0  1  0  0  0  0  0  0  0  0  0
    0.1635    0.5873   -0.2315 H   0  0  0  0  0  0  0  0  0  0  0  0
    0.6670    0.2639    1.8065 C   0  0  0  0  0  0  0  0  0  0  0  0
    1.6171    0.8001    1.7072 H   0  0  0  0  0  0  0  0  0  0  0  0
   -0.0824    0.9813    2.1557 H   0  0  0  0  0  0  0  0  0  0  0  0
    0.8119   -0.7739    2.7806 O   0  0  0  0  0  0  0  0  0  0  0  0
    1.1206   -0.4194    3.6316 H   0  0  0  0  0  0  0  0  0  0  0  0
    1.4198   -1.0986   -0.1608 C   0  0  0  0  0  0  0  0  0  0  0  0
    2.1887   -0.5233   -0.9233 O   0  0  0  0  0  0  0  0  0  0  0  0
    1.6649   -2.4231    0.1333 N   0  0  0  0  0  0  0  0  0  0  0  0
    1.0060   -2.8658    0.7807 H   0  0  0  0  0  0  0  0  0  0  0  0
    2.7867   -3.1917   -0.3856 C   0  0  0  0  0  0  0  0  0  0  0  0
    3.7351   -2.7217   -0.1058 H   0  0  0  0  0  0  0  0  0  0  0  0
    2.7691   -4.2057    0.0253 H   0  0  0  0  0  0  0  0  0  0  0  0
    2.7327   -3.2587   -1.4769 H   0  0  0  0  0  0  0  0  0  0  0  0
  1  2  1  0  0  0  0
  2  3  1  0  0  0  0
  2  4  1  0  0  0  0
  2  5  1  0  0  0  0
  5  6  2  0  0  0  0
  5  7  1  0  0  0  0
  7  8  1  0  0  0  0
  7  9  1  0  0  0  0
  9 10  1  0  0  0  0
  9 11  1  0  0  0  0
  9 16  1  0  0  0  0
 11 12  1  0  0  0  0
 11 13  1  0  0  0  0
 11 14  1  0  0  0  0
 14 15  1  0  0  0  0
 16 17  2  0  0  0  0
 16 18  1  0  0  0  0
 18 19  1  0  0  0  0
 18 20  1  0  0  0  0
 20 21  1  0  0  0  0
 20 22  1  0  0  0  0
 20 23  1  0  0  0  0
M  END
$$$$

  -OEChem-01062216093D

 23 22  0     1  0  0  0  0  0999 V2000
   -3.2654   -3.4124    1.1490 H   0  0  0  0  0  0  0  0  0  0  0  0
   -3.0680   -2.3854    0.8284 C   0  0  0  0  0  0  0  0  0  0  0  0
   -3.5765   -1.7017    1.5124 H   0  0  0  0  0  0  0  0  0  0  0  0
   -3.4681   -2.2495   -0.1793 H   0  0  0  0  0  0  0  0  0  0  0  0
   -1.5753   -2.1112    0.8365 C   0  0  0  0  0  0  0  0  0  0  0  0
   -0.8236   -3.0108    1.1669 O   0  0  0  0  0  0  0  0  0  0  0  0
   -1.1407   -0.8501    0.4659 N   0  0  0  0  0  0  0  0  0  0  0  0
   -1.8897   -0.2049    0.2377 H   0  0  0  0  0  0  0  0  0  0  0  0
    0.2371   -0.2887    0.4284 C   0  0  1  0  0  0  0  0  0  0  0  0
    0.1717    0.5979   -0.2092 H   0  0  0  0  0  0  0  0  0  0  0  0
    0.6467    0.2048    1.8260 C   0  0  0  0  0  0  0  0  0  0  0  0
    1.6048    0.7315    1.7595 H   0  0  0  0  0  0  0  0  0  0  0  0
   -0.0980    0.9201    2.1892 H   0  0  0  0  0  0  0  0  0  0  0  0
    0.7637   -0.8687    2.7641 O   0  0  0  0  0  0  0  0  0  0  0  0
    1.0811   -0.5511    3.6264 H   0  0  0  0  0  0  0  0  0  0  0  0
    1.4174   -1.0934   -0.1727 C   0  0  0  0  0  0  0  0  0  0  0  0
    2.3189   -0.4570   -0.7078 O   0  0  0  0  0  0  0  0  0  0  0  0
    1.5107   -2.4696   -0.1690 N   0  0  0  0  0  0  0  0  0  0  0  0
    0.8128   -2.9549    0.4011 H   0  0  0  0  0  0  0  0  0  0  0  0
    2.6762   -3.2081   -0.6338 C   0  0  0  0  0  0  0  0  0  0  0  0
    3.5588   -2.9414   -0.0433 H   0  0  0  0  0  0  0  0  0  0  0  0
    2.5029   -4.2838   -0.5334 H   0  0  0  0  0  0  0  0  0  0  0  0
    2.8753   -2.9876   -1.6877 H   0  0  0  0  0  0  0  0  0  0  0  0
  1  2  1  0  0  0  0
  2  3  1  0  0  0  0
  2  4  1  0  0  0  0
  2  5  1  0  0  0  0
  5  6  2  0  0  0  0
  5  7  1  0  0  0  0
  7  8  1  0  0  0  0
  7  9  1  0  0  0  0
  9 10  1  0  0  0  0
  9 11  1  0  0  0  0
  9 16  1  0  0  0  0
 11 12  1  0  0  0  0
 11 13  1  0  0  0  0
 11 14  1  0  0  0  0
 14 15  1  0  0  0  0
 16 17  2  0  0  0  0
 16 18  1  0  0  0  0
 18 19  1  0  0  0  0
 18 20  1  0  0  0  0
 20 21  1  0  0  0  0
 20 22  1  0  0  0  0
 20 23  1  0  0  0  0
M  END
$$$$

  -OEChem-01062216093D

 23 22  0     1  0  0  0  0  0999 V2000
   -3.2355   -3.4061    1.2933 H   0  0  0  0  0  0  0  0  0  0  0  0
   -3.0582   -2.3796    0.9596 C   0  0  0  0  0  0  0  0  0  0  0  0
   -3.5161   -1.6948    1.6774 H   0  0  0  0  0  0  0  0  0  0  0  0
   -3.5269   -2.2423   -0.0178 H   0  0  0  0  0  0  0  0  0  0  0  0
   -1.5678   -2.1101    0.8639 C   0  0  0  0  0  0  0  0  0  0  0  0
   -0.7973   -3.0181    1.1193 O   0  0  0  0  0  0  0  0  0  0  0  0
   -1.1532   -0.8500    0.4681 N   0  0  0  0  0  0  0  0  0  0  0  0
   -1.9122   -0.1958    0.3090 H   0  0  0  0  0  0  0  0  0  0  0  0
    0.2218   -0.2856    0.3885 C   0  0  1  0  0  0  0  0  0  0  0  0
    0.1399    0.5944   -0.2559 H   0  0  0  0  0  0  0  0  0  0  0  0
    0.6564    0.2177    1.7760 C   0  0  0  0  0  0  0  0  0  0  0  0
    1.6107    0.7485    1.6906 H   0  0  0  0  0  0  0  0  0  0  0  0
   -0.0837    0.9317    2.1509 H   0  0  0  0  0  0  0  0  0  0  0  0
    0.7951   -0.8522    2.7153 O   0  0  0  0  0  0  0  0  0  0  0  0
    1.1601   -0.5356    3.5588 H   0  0  0  0  0  0  0  0  0  0  0  0
    1.3919   -1.0901   -0.2347 C   0  0  0  0  0  0  0  0  0  0  0  0
    2.3713   -0.4579   -0.6166 O   0  0  0  0  0  0  0  0  0  0  0  0
    1.3606   -2.4472   -0.4850 N   0  0  0  0  0  0  0  0  0  0  0  0
    0.6344   -2.9575    0.0233 H   0  0  0  0  0  0  0  0  0  0  0  0
    2.5055   -3.1959   -0.9850 C   0  0  0  0  0  0  0  0  0  0  0  0
    3.3434   -3.1283   -0.2834 H   0  0  0  0  0  0  0  0  0  0  0  0
    2.2398   -4.2501   -1.1085 H   0  0  0  0  0  0  0  0  0  0  0  0
    2.8254   -2.8055   -1.9567 H   0  0  0  0  0  0  0  0  0  0  0  0
  1  2  1  0  0  0  0
  2  3  1  0  0  0  0
  2  4  1  0  0  0  0
  2  5  1  0  0  0  0
  5  6  2  0  0  0  0
  5  7  1  0  0  0  0
  7  8  1  0  0  0  0
  7  9  1  0  0  0  0
  9 10  1  0  0  0  0
  9 11  1  0  0  0  0
  9 16  1  0  0  0  0
 11 12  1  0  0  0  0
 11 13  1  0  0  0  0
 11 14  1  0  0  0  0
 14 15  1  0  0  0  0
 16 17  2  0  0  0  0
 16 18  1  0  0  0  0
 18 19  1  0  0  0  0
 18 20  1  0  0  0  0
 20 21  1  0  0  0  0
 20 22  1  0  0  0  0
 20 23  1  0  0  0  0
M  END
$$$$

  -OEChem-01062216093D

 23 22  0     1  0  0  0  0  0999 V2000
   -3.1857   -3.4090    1.3284 H   0  0  0  0  0  0  0  0  0  0  0  0
   -3.0271   -2.3790    0.9962 C   0  0  0  0  0  0  0  0  0  0  0  0
   -3.4392   -1.7024    1.7484 H   0  0  0  0  0  0  0  0  0  0  0  0
   -3.5545   -2.2290    0.0512 H   0  0  0  0  0  0  0  0  0  0  0  0
   -1.5449   -2.1104    0.8126 C   0  0  0  0  0  0  0  0  0  0  0  0
   -0.7627   -3.0326    0.9584 O   0  0  0  0  0  0  0  0  0  0  0  0
   -1.1474   -0.8402    0.4333 N   0  0  0  0  0  0  0  0  0  0  0  0
   -1.9076   -0.1716    0.3676 H   0  0  0  0  0  0  0  0  0  0  0  0
    0.2267   -0.2726    0.3767 C   0  0  1  0  0  0  0  0  0  0  0  0
    0.1556    0.6137   -0.2601 H   0  0  0  0  0  0  0  0  0  0  0  0
    0.6300    0.2148    1.7803 C   0  0  0  0  0  0  0  0  0  0  0  0
    1.5837    0.7505    1.7236 H   0  0  0  0  0  0  0  0  0  0  0  0
   -0.1203    0.9211    2.1496 H   0  0  0  0  0  0  0  0  0  0  0  0
    0.7521   -0.8685    2.7067 O   0  0  0  0  0  0  0  0  0  0  0  0
    1.1424   -0.5709    3.5459 H   0  0  0  0  0  0  0  0  0  0  0  0
    1.4021   -1.0732   -0.2427 C   0  0  0  0  0  0  0  0  0  0  0  0
    2.4608   -0.4821   -0.4302 O   0  0  0  0  0  0  0  0  0  0  0  0
    1.2671   -2.3411   -0.7739 N   0  0  0  0  0  0  0  0  0  0  0  0
    0.4863   -2.8713   -0.3809 H   0  0  0  0  0  0  0  0  0  0  0  0
    2.3911   -3.0942   -1.3141 C   0  0  0  0  0  0  0  0  0  0  0  0
    3.1620   -3.2339   -0.5490 H   0  0  0  0  0  0  0  0  0  0  0  0
    2.0547   -4.0788   -1.6526 H   0  0  0  0  0  0  0  0  0  0  0  0
    2.8310   -2.5682   -2.1678 H   0  0  0  0  0  0  0  0  0  0  0  0
  1  2  1  0  0  0  0
  2  3  1  0  0  0  0
  2  4  1  0  0  0  0
  2  5  1  0  0  0  0
  5  6  2  0  0  0  0
  5  7  1  0  0  0  0
  7  8  1  0  0  0  0
  7  9  1  0  0  0  0
  9 10  1  0  0  0  0
  9 11  1  0  0  0  0
  9 16  1  0  0  0  0
 11 12  1  0  0  0  0
 11 13  1  0  0  0  0
 11 14  1  0  0  0  0
 14 15  1  0  0  0  0
 16 17  2  0  0  0  0
 16 18  1  0  0  0  0
 18 19  1  0  0  0  0
 18 20  1  0  0  0  0
 20 21  1  0  0  0  0
 20 22  1  0  0  0  0
 20 23  1  0  0  0  0
M  END
$$$$

  -OEChem-01062216093D

 23 22  0     1  0  0  0  0  0999 V2000
   -3.0959   -3.4236    1.3658 H   0  0  0  0  0  0  0  0  0  0  0  0
   -2.9690   -2.3880    1.0377 C   0  0  0  0  0  0  0  0  0  0  0  0
   -3.3211   -1.7248    1.8315 H   0  0  0  0  0  0  0  0  0  0  0  0
   -3.5711   -2.2261    0.1405 H   0  0  0  0  0  0  0  0  0  0  0  0
   -1.5077   -2.1097    0.7398 C   0  0  0  0  0  0  0  0  0  0  0  0
   -0.7193   -3.0385    0.7471 O   0  0  0  0  0  0  0  0  0  0  0  0
   -1.1355   -0.8268    0.3798 N   0  0  0  0  0  0  0  0  0  0  0  0
   -1.8931   -0.1532    0.4220 H   0  0  0  0  0  0  0  0  0  0  0  0
    0.2377   -0.2566    0.3637 C   0  0  1  0  0  0  0  0  0  0  0  0
    0.1861    0.6342   -0.2682 H   0  0  0  0  0  0  0  0  0  0  0  0
    0.5927    0.2182    1.7855 C   0  0  0  0  0  0  0  0  0  0  0  0
    1.5458    0.7574    1.7672 H   0  0  0  0  0  0  0  0  0  0  0  0
   -0.1708    0.9188    2.1383 H   0  0  0  0  0  0  0  0  0  0  0  0
    0.6864   -0.8767    2.7025 O   0  0  0  0  0  0  0  0  0  0  0  0
    1.1017   -0.6006    3.5372 H   0  0  0  0  0  0  0  0  0  0  0  0
    1.4180   -1.0624   -0.2397 C   0  0  0  0  0  0  0  0  0  0  0  0
    2.5388   -0.5628   -0.2210 O   0  0  0  0  0  0  0  0  0  0  0  0
    1.2169   -2.1709   -1.0399 N   0  0  0  0  0  0  0  0  0  0  0  0
    0.3769   -2.6953   -0.7878 H   0  0  0  0  0  0  0  0  0  0  0  0
    2.3213   -2.9224   -1.6221 C   0  0  0  0  0  0  0  0  0  0  0  0
    2.9847   -3.2992   -0.8366 H   0  0  0  0  0  0  0  0  0  0  0  0
    1.9371   -3.7745   -2.1909 H   0  0  0  0  0  0  0  0  0  0  0  0
    2.9017   -2.2891   -2.3012 H   0  0  0  0  0  0  0  0  0  0  0  0
  1  2  1  0  0  0  0
  2  3  1  0  0  0  0
  2  4  1  0  0  0  0
  2  5  1  0  0  0  0
  5  6  2  0  0  0  0
  5  7  1  0  0  0  0
  7  8  1  0  0  0  0
  7  9  1  0  0  0  0
  9 10  1  0  0  0  0
  9 11  1  0  0  0  0
  9 16  1  0  0  0  0
 11 12  1  0  0  0  0
 11 13  1  0  0  0  0
 11 14  1  0  0  0  0
 14 15  1  0  0  0  0
 16 17  2  0  0  0  0
 16 18  1  0  0  0  0
 18 19  1  0  0  0  0
 18 20  1  0  0  0  0
 20 21  1  0  0  0  0
 20 22  1  0  0  0  0
 20 23  1  0  0  0  0
M  END
$$$$

  -OEChem-01062216093D

 23 22  0     1  0  0  0  0  0999 V2000
   -2.9970   -3.4691    1.3188 H   0  0  0  0  0  0  0  0  0  0  0  0
   -2.8926   -2.4087    1.0713 C   0  0  0  0  0  0  0  0  0  0  0  0
   -3.1653   -1.8167    1.9483 H   0  0  0  0  0  0  0  0  0  0  0  0
   -3.5728   -2.1698    0.2504 H   0  0  0  0  0  0  0  0  0  0  0  0
   -1.4620   -2.1058    0.6675 C   0  0  0  0  0  0  0  0  0  0  0  0
   -0.6735   -3.0263    0.5444 O   0  0  0  0  0  0  0  0  0  0  0  0
   -1.1220   -0.8102    0.3232 N   0  0  0  0  0  0  0  0  0  0  0  0
   -1.8756   -0.1453    0.4624 H   0  0  0  0  0  0  0  0  0  0  0  0
    0.2482   -0.2368    0.3512 C   0  0  1  0  0  0  0  0  0  0  0  0
    0.2191    0.6569   -0.2776 H   0  0  0  0  0  0  0  0  0  0  0  0
    0.5524    0.2313    1.7876 C   0  0  0  0  0  0  0  0  0  0  0  0
    1.5041    0.7726    1.8043 H   0  0  0  0  0  0  0  0  0  0  0  0
   -0.2232    0.9291    2.1188 H   0  0  0  0  0  0  0  0  0  0  0  0
    0.6176   -0.8696    2.7003 O   0  0  0  0  0  0  0  0  0  0  0  0
    1.0775   -0.6170    3.5191 H   0  0  0  0  0  0  0  0  0  0  0  0
    1.4281   -1.0564   -0.2328 C   0  0  0  0  0  0  0  0  0  0  0  0
    2.5807   -0.7011   -0.0058 O   0  0  0  0  0  0  0  0  0  0  0  0
    1.2149   -1.9457   -1.2698 N   0  0  0  0  0  0  0  0  0  0  0  0
    0.3106   -2.4130   -1.2015 H   0  0  0  0  0  0  0  0  0  0  0  0
    2.3048   -2.7016   -1.8742 C   0  0  0  0  0  0  0  0  0  0  0  0
    2.8024   -3.3232   -1.1224 H   0  0  0  0  0  0  0  0  0  0  0  0
    1.9179   -3.3530   -2.6633 H   0  0  0  0  0  0  0  0  0  0  0  0
    3.0430   -2.0256   -2.3182 H   0  0  0  0  0  0  0  0  0  0  0  0
  1  2  1  0  0  0  0
  2  3  1  0  0  0  0
  2  4  1  0  0  0  0
  2  5  1  0  0  0  0
  5  6  2  0  0  0  0
  5  7  1  0  0  0  0
  7  8  1  0  0  0  0
  7  9  1  0  0  0  0
  9 10  1  0  0  0  0
  9 11  1  0  0  0  0
  9 16  1  0  0  0  0
 11 12  1  0  0  0  0
 11 13  1  0  0  0  0
 11 14  1  0  0  0  0
 14 15  1  0  0  0  0
 16 17  2  0  0  0  0
 16 18  1  0  0  0  0
 18 19  1  0  0  0  0
 18 20  1  0  0  0  0
 20 21  1  0  0  0  0
 20 22  1  0  0  0  0
 20 23  1  0  0  0  0
M  END
$$$$

  -OEChem-01062216093D

 23 22  0     1  0  0  0  0  0999 V2000
   -2.8354   -3.5487    1.2825 H   0  0  0  0  0  0  0  0  0  0  0  0
   -2.7960   -2.4819    1.0443 C   0  0  0  0  0  0  0  0  0  0  0  0
   -3.1543   -1.9176    1.9089 H   0  0  0  0  0  0  0  0  0  0  0  0
   -3.4509   -2.2874    0.1918 H   0  0  0  0  0  0  0  0  0  0  0  0
   -1.3728   -2.0727    0.7144 C   0  0  0  0  0  0  0  0  0  0  0  0
   -0.4913   -2.9140    0.7258 O   0  0  0  0  0  0  0  0  0  0  0  0
   -1.1128   -0.7633    0.3486 N   0  0  0  0  0  0  0  0  0  0  0  0
   -1.9085   -0.1412    0.4538 H   0  0  0  0  0  0  0  0  0  0  0  0
    0.2257   -0.1237    0.3794 C   0  0  1  0  0  0  0  0  0  0  0  0
    0.1702    0.7642   -0.2563 H   0  0  0  0  0  0  0  0  0  0  0  0
    0.5108    0.3649    1.8131 C   0  0  0  0  0  0  0  0  0  0  0  0
    1.4338    0.9544    1.8274 H   0  0  0  0  0  0  0  0  0  0  0  0
   -0.3000    1.0212    2.1445 H   0  0  0  0  0  0  0  0  0  0  0  0
    0.6318   -0.7278    2.7277 O   0  0  0  0  0  0  0  0  0  0  0  0
    1.3288   -1.3412    2.4183 H   0  0  0  0  0  0  0  0  0  0  0  0
    1.4096   -0.9415   -0.1971 C   0  0  0  0  0  0  0  0  0  0  0  0
    2.5152   -0.9093    0.3325 O   0  0  0  0  0  0  0  0  0  0  0  0
    1.2616   -1.6086   -1.3994 N   0  0  0  0  0  0  0  0  0  0  0  0
    0.2992   -1.8082   -1.6564 H   0  0  0  0  0  0  0  0  0  0  0  0
    2.2987   -2.4853   -1.9290 C   0  0  0  0  0  0  0  0  0  0  0  0
    2.5054   -3.2998   -1.2265 H   0  0  0  0  0  0  0  0  0  0  0  0
    1.9764   -2.9200   -2.8799 H   0  0  0  0  0  0  0  0  0  0  0  0
    3.2238   -1.9259   -2.1032 H   0  0  0  0  0  0  0  0  0  0  0  0
  1  2  1  0  0  0  0
  2  3  1  0  0  0  0
  2  4  1  0  0  0  0
  2  5  1  0  0  0  0
  5  6  2  0  0  0  0
  5  7  1  0  0  0  0
  7  8  1  0  0  0  0
  7  9  1  0  0  0  0
  9 10  1  0  0  0  0
  9 11  1  0  0  0  0
  9 16  1  0  0  0  0
 11 12  1  0  0  0  0
 11 13  1  0  0  0  0
 11 14  1  0  0  0  0
 14 15  1  0  0  0  0
 16 17  2  0  0  0  0
 16 18  1  0  0  0  0
 18 19  1  0  0  0  0
 18 20  1  0  0  0  0
 20 21  1  0  0  0  0
 20 22  1  0  0  0  0
 20 23  1  0  0  0  0
M  END
$$$$

  -OEChem-01062216093D

 23 22  0     1  0  0  0  0  0999 V2000
   -2.7969   -3.5714    1.2744 H   0  0  0  0  0  0  0  0  0  0  0  0
   -2.7686   -2.5040    1.0372 C   0  0  0  0  0  0  0  0  0  0  0  0
   -3.1338   -1.9442    1.9017 H   0  0  0  0  0  0  0  0  0  0  0  0
   -3.4240   -2.3159    0.1836 H   0  0  0  0  0  0  0  0  0  0  0  0
   -1.3493   -2.0800    0.7090 C   0  0  0  0  0  0  0  0  0  0  0  0
   -0.4597   -2.9124    0.7236 O   0  0  0  0  0  0  0  0  0  0  0  0
   -1.1029   -0.7690    0.3390 N   0  0  0  0  0  0  0  0  0  0  0  0
   -1.9055   -0.1559    0.4433 H   0  0  0  0  0  0  0  0  0  0  0  0
    0.2284   -0.1178    0.3838 C   0  0  1  0  0  0  0  0  0  0  0  0
    0.1766    0.7690   -0.2532 H   0  0  0  0  0  0  0  0  0  0  0  0
    0.4966    0.3760    1.8187 C   0  0  0  0  0  0  0  0  0  0  0  0
    1.4177    0.9683    1.8371 H   0  0  0  0  0  0  0  0  0  0  0  0
   -0.3199    1.0289    2.1426 H   0  0  0  0  0  0  0  0  0  0  0  0
    0.6183   -0.7146    2.7349 O   0  0  0  0  0  0  0  0  0  0  0  0
    1.3031   -1.3358    2.4083 H   0  0  0  0  0  0  0  0  0  0  0  0
    1.4158   -0.9409   -0.1767 C   0  0  0  0  0  0  0  0  0  0  0  0
    2.4430   -1.1029    0.4745 O   0  0  0  0  0  0  0  0  0  0  0  0
    1.3887   -1.3500   -1.4977 N   0  0  0  0  0  0  0  0  0  0  0  0
    0.4712   -1.3629   -1.9324 H   0  0  0  0  0  0  0  0  0  0  0  0
    2.4274   -2.1994   -2.0679 C   0  0  0  0  0  0  0  0  0  0  0  0
    2.4787   -3.1529   -1.5312 H   0  0  0  0  0  0  0  0  0  0  0  0
    2.2121   -2.4043   -3.1209 H   0  0  0  0  0  0  0  0  0  0  0  0
    3.4038   -1.7074   -2.0065 H   0  0  0  0  0  0  0  0  0  0  0  0
  1  2  1  0  0  0  0
  2  3  1  0  0  0  0
  2  4  1  0  0  0  0
  2  5  1  0  0  0  0
  5  6  2  0  0  0  0
  5  7  1  0  0  0  0
  7  8  1  0  0  0  0
  7  9  1  0  0  0  0
  9 10  1  0  0  0  0
  9 11  1  0  0  0  0
  9 16  1  0  0  0  0
 11 12  1  0  0  0  0
 11 13  1  0  0  0  0
 11 14  1  0  0  0  0
 14 15  1  0  0  0  0
 16 17  2  0  0  0  0
 16 18  1  0  0  0  0
 18 19  1  0  0  0  0
 18 20  1  0  0  0  0
 20 21  1  0  0  0  0
 20 22  1  0  0  0  0
 20 23  1  0  0  0  0
M  END
$$$$

  -OEChem-01062216093D

 23 22  0     1  0  0  0  0  0999 V2000
   -2.8047   -3.5683    1.3021 H   0  0  0  0  0  0  0  0  0  0  0  0
   -2.7742   -2.5061    1.0430 C   0  0  0  0  0  0  0  0  0  0  0  0
   -3.1469   -1.9284    1.8923 H   0  0  0  0  0  0  0  0  0  0  0  0
   -3.4215   -2.3357    0.1795 H   0  0  0  0  0  0  0  0  0  0  0  0
   -1.3519   -2.0889    0.7189 C   0  0  0  0  0  0  0  0  0  0  0  0
   -0.4664   -2.9249    0.7397 O   0  0  0  0  0  0  0  0  0  0  0  0
   -1.1015   -0.7810    0.3413 N   0  0  0  0  0  0  0  0  0  0  0  0
   -1.9039   -0.1670    0.4398 H   0  0  0  0  0  0  0  0  0  0  0  0
    0.2295   -0.1305    0.3835 C   0  0  1  0  0  0  0  0  0  0  0  0
    0.1776    0.7557   -0.2543 H   0  0  0  0  0  0  0  0  0  0  0  0
    0.4961    0.3693    1.8166 C   0  0  0  0  0  0  0  0  0  0  0  0
    1.4200    0.9572    1.8314 H   0  0  0  0  0  0  0  0  0  0  0  0
   -0.3182    1.0264    2.1375 H   0  0  0  0  0  0  0  0  0  0  0  0
    0.6159   -0.7180    2.7365 O   0  0  0  0  0  0  0  0  0  0  0  0
    1.2717   -1.3607    2.3870 H   0  0  0  0  0  0  0  0  0  0  0  0
    1.4193   -0.9569   -0.1693 C   0  0  0  0  0  0  0  0  0  0  0  0
    2.3526   -1.2948    0.5529 O   0  0  0  0  0  0  0  0  0  0  0  0
    1.5539   -1.1081   -1.5381 N   0  0  0  0  0  0  0  0  0  0  0  0
    0.7175   -0.9456   -2.0900 H   0  0  0  0  0  0  0  0  0  0  0  0
    2.6315   -1.8890   -2.1342 C   0  0  0  0  0  0  0  0  0  0  0  0
    2.5928   -2.9254   -1.7820 H   0  0  0  0  0  0  0  0  0  0  0  0
    2.5404   -1.8889   -3.2245 H   0  0  0  0  0  0  0  0  0  0  0  0
    3.6055   -1.4634   -1.8708 H   0  0  0  0  0  0  0  0  0  0  0  0
  1  2  1  0  0  0  0
  2  3  1  0  0  0  0
  2  4  1  0  0  0  0
  2  5  1  0  0  0  0
  5  6  2  0  0  0  0
  5  7  1  0  0  0  0
  7  8  1  0  0  0  0
  7  9  1  0  0  0  0
  9 10  1  0  0  0  0
  9 11  1  0  0  0  0
  9 16  1  0  0  0  0
 11 12  1  0  0  0  0
 11 13  1  0  0  0  0
 11 14  1  0  0  0  0
 14 15  1  0  0  0  0
 16 17  2  0  0  0  0
 16 18  1  0  0  0  0
 18 19  1  0  0  0  0
 18 20  1  0  0  0  0
 20 21  1  0  0  0  0
 20 22  1  0  0  0  0
 20 23  1  0  0  0  0
M  END
$$$$

  -OEChem-01062216093D

 23 22  0     1  0  0  0  0  0999 V2000
   -2.8289   -3.5574    1.3472 H   0  0  0  0  0  0  0  0  0  0  0  0
   -2.7916   -2.5008    1.0670 C   0  0  0  0  0  0  0  0  0  0  0  0
   -3.1579   -1.9038    1.9056 H   0  0  0  0  0  0  0  0  0  0  0  0
   -3.4396   -2.3433    0.2018 H   0  0  0  0  0  0  0  0  0  0  0  0
   -1.3673   -2.1002    0.7314 C   0  0  0  0  0  0  0  0  0  0  0  0
   -0.4911   -2.9448    0.7565 O   0  0  0  0  0  0  0  0  0  0  0  0
   -1.1073   -0.7984    0.3405 N   0  0  0  0  0  0  0  0  0  0  0  0
   -1.9061   -0.1791    0.4331 H   0  0  0  0  0  0  0  0  0  0  0  0
    0.2268   -0.1537    0.3700 C   0  0  1  0  0  0  0  0  0  0  0  0
    0.1705    0.7302   -0.2708 H   0  0  0  0  0  0  0  0  0  0  0  0
    0.5007    0.3545    1.7987 C   0  0  0  0  0  0  0  0  0  0  0  0
    1.4298    0.9342    1.8050 H   0  0  0  0  0  0  0  0  0  0  0  0
   -0.3068    1.0200    2.1197 H   0  0  0  0  0  0  0  0  0  0  0  0
    0.6188   -0.7280    2.7242 O   0  0  0  0  0  0  0  0  0  0  0  0
    1.2332   -1.3994    2.3497 H   0  0  0  0  0  0  0  0  0  0  0  0
    1.4224   -0.9787   -0.1764 C   0  0  0  0  0  0  0  0  0  0  0  0
    2.2498   -1.4809    0.5788 O   0  0  0  0  0  0  0  0  0  0  0  0
    1.7431   -0.8870   -1.5200 N   0  0  0  0  0  0  0  0  0  0  0  0
    1.0172   -0.5427   -2.1404 H   0  0  0  0  0  0  0  0  0  0  0  0
    2.8818   -1.5852   -2.1057 C   0  0  0  0  0  0  0  0  0  0  0  0
    2.7879   -2.6657   -1.9527 H   0  0  0  0  0  0  0  0  0  0  0  0
    2.9336   -1.3903   -3.1811 H   0  0  0  0  0  0  0  0  0  0  0  0
    3.8171   -1.2444   -1.6492 H   0  0  0  0  0  0  0  0  0  0  0  0
  1  2  1  0  0  0  0
  2  3  1  0  0  0  0
  2  4  1  0  0  0  0
  2  5  1  0  0  0  0
  5  6  2  0  0  0  0
  5  7  1  0  0  0  0
  7  8  1  0  0  0  0
  7  9  1  0  0  0  0
  9 10  1  0  0  0  0
  9 11  1  0  0  0  0
  9 16  1  0  0  0  0
 11 12  1  0  0  0  0
 11 13  1  0  0  0  0
 11 14  1  0  0  0  0
 14 15  1  0  0  0  0
 16 17  2  0  0  0  0
 16 18  1  0  0  0  0
 18 19  1  0  0  0  0
 18 20  1  0  0  0  0
 20 21  1  0  0  0  0
 20 22  1  0  0  0  0
 20 23  1  0  0  0  0
M  END
$$$$

  -OEChem-01062216093D

 23 22  0     1  0  0  0  0  0999 V2000
   -2.8698   -3.5618    1.3420 H   0  0  0  0  0  0  0  0  0  0  0  0
   -2.8106   -2.4970    1.0988 C   0  0  0  0  0  0  0  0  0  0  0  0
   -3.1495   -1.9211    1.9635 H   0  0  0  0  0  0  0  0  0  0  0  0
   -3.4677   -2.2934    0.2502 H   0  0  0  0  0  0  0  0  0  0  0  0
   -1.3820   -2.1191    0.7551 C   0  0  0  0  0  0  0  0  0  0  0  0
   -0.5169   -2.9731    0.7974 O   0  0  0  0  0  0  0  0  0  0  0  0
   -1.1112   -0.8279    0.3384 N   0  0  0  0  0  0  0  0  0  0  0  0
   -1.9084   -0.2043    0.4110 H   0  0  0  0  0  0  0  0  0  0  0  0
    0.2232   -0.1826    0.3434 C   0  0  1  0  0  0  0  0  0  0  0  0
    0.1531    0.6923   -0.3080 H   0  0  0  0  0  0  0  0  0  0  0  0
    0.5070    0.3457    1.7621 C   0  0  0  0  0  0  0  0  0  0  0  0
    1.4368    0.9243    1.7524 H   0  0  0  0  0  0  0  0  0  0  0  0
   -0.2975    1.0164    2.0800 H   0  0  0  0  0  0  0  0  0  0  0  0
    0.6327   -0.7239    2.7019 O   0  0  0  0  0  0  0  0  0  0  0  0
    1.2033   -1.4257    2.3107 H   0  0  0  0  0  0  0  0  0  0  0  0
    1.4312   -0.9992   -0.1911 C   0  0  0  0  0  0  0  0  0  0  0  0
    2.1529   -1.6413    0.5661 O   0  0  0  0  0  0  0  0  0  0  0  0
    1.9406   -0.6951   -1.4427 N   0  0  0  0  0  0  0  0  0  0  0  0
    1.3334   -0.1886   -2.0787 H   0  0  0  0  0  0  0  0  0  0  0  0
    3.1467   -1.3154   -1.9807 C   0  0  0  0  0  0  0  0  0  0  0  0
    3.0290   -2.4033   -2.0294 H   0  0  0  0  0  0  0  0  0  0  0  0
    3.3455   -0.9425   -2.9900 H   0  0  0  0  0  0  0  0  0  0  0  0
    4.0126   -1.0825   -1.3517 H   0  0  0  0  0  0  0  0  0  0  0  0
  1  2  1  0  0  0  0
  2  3  1  0  0  0  0
  2  4  1  0  0  0  0
  2  5  1  0  0  0  0
  5  6  2  0  0  0  0
  5  7  1  0  0  0  0
  7  8  1  0  0  0  0
  7  9  1  0  0  0  0
  9 10  1  0  0  0  0
  9 11  1  0  0  0  0
  9 16  1  0  0  0  0
 11 12  1  0  0  0  0
 11 13  1  0  0  0  0
 11 14  1  0  0  0  0
 14 15  1  0  0  0  0
 16 17  2  0  0  0  0
 16 18  1  0  0  0  0
 18 19  1  0  0  0  0
 18 20  1  0  0  0  0
 20 21  1  0  0  0  0
 20 22  1  0  0  0  0
 20 23  1  0  0  0  0
M  END
$$$$

  -OEChem-01062216093D

 23 22  0     1  0  0  0  0  0999 V2000
   -2.9300   -3.5608    1.3200 H   0  0  0  0  0  0  0  0  0  0  0  0
   -2.8434   -2.4908    1.1098 C   0  0  0  0  0  0  0  0  0  0  0  0
   -3.1837   -1.9328    1.9856 H   0  0  0  0  0  0  0  0  0  0  0  0
   -3.4822   -2.2482    0.2574 H   0  0  0  0  0  0  0  0  0  0  0  0
   -1.4008   -2.1353    0.8014 C   0  0  0  0  0  0  0  0  0  0  0  0
   -0.5475   -2.9930    0.9159 O   0  0  0  0  0  0  0  0  0  0  0  0
   -1.1091   -0.8584    0.3550 N   0  0  0  0  0  0  0  0  0  0  0  0
   -1.9074   -0.2323    0.3716 H   0  0  0  0  0  0  0  0  0  0  0  0
    0.2265   -0.2138    0.3216 C   0  0  1  0  0  0  0  0  0  0  0  0
    0.1362    0.6511   -0.3405 H   0  0  0  0  0  0  0  0  0  0  0  0
    0.5403    0.3302    1.7273 C   0  0  0  0  0  0  0  0  0  0  0  0
    1.4702    0.9073    1.6912 H   0  0  0  0  0  0  0  0  0  0  0  0
   -0.2564    1.0052    2.0560 H   0  0  0  0  0  0  0  0  0  0  0  0
    0.6853   -0.7300    2.6750 O   0  0  0  0  0  0  0  0  0  0  0  0
    1.1771   -1.4744    2.2543 H   0  0  0  0  0  0  0  0  0  0  0  0
    1.4446   -1.0190   -0.2096 C   0  0  0  0  0  0  0  0  0  0  0  0
    2.0554   -1.8065    0.5046 O   0  0  0  0  0  0  0  0  0  0  0  0
    2.1281   -0.5349   -1.3139 N   0  0  0  0  0  0  0  0  0  0  0  0
    1.6516    0.1407   -1.9022 H   0  0  0  0  0  0  0  0  0  0  0  0
    3.3961   -1.0900   -1.7769 C   0  0  0  0  0  0  0  0  0  0  0  0
    3.2919   -2.1591   -1.9911 H   0  0  0  0  0  0  0  0  0  0  0  0
    3.7193   -0.5843   -2.6918 H   0  0  0  0  0  0  0  0  0  0  0  0
    4.1735   -0.9572   -1.0169 H   0  0  0  0  0  0  0  0  0  0  0  0
  1  2  1  0  0  0  0
  2  3  1  0  0  0  0
  2  4  1  0  0  0  0
  2  5  1  0  0  0  0
  5  6  2  0  0  0  0
  5  7  1  0  0  0  0
  7  8  1  0  0  0  0
  7  9  1  0  0  0  0
  9 10  1  0  0  0  0
  9 11  1  0  0  0  0
  9 16  1  0  0  0  0
 11 12  1  0  0  0  0
 11 13  1  0  0  0  0
 11 14  1  0  0  0  0
 14 15  1  0  0  0  0
 16 17  2  0  0  0  0
 16 18  1  0  0  0  0
 18 19  1  0  0  0  0
 18 20  1  0  0  0  0
 20 21  1  0  0  0  0
 20 22  1  0  0  0  0
 20 23  1  0  0  0  0
M  END
$$$$

  -OEChem-01062216093D

 23 22  0     1  0  0  0  0  0999 V2000
   -2.7892   -3.7183    0.9152 H   0  0  0  0  0  0  0  0  0  0  0  0
   -2.7085   -2.6739    0.6003 C   0  0  0  0  0  0  0  0  0  0  0  0
   -3.5278   -2.1064    1.0476 H   0  0  0  0  0  0  0  0  0  0  0  0
   -2.7905   -2.6311   -0.4881 H   0  0  0  0  0  0  0  0  0  0  0  0
   -1.3756   -2.0988    1.0434 C   0  0  0  0  0  0  0  0  0  0  0  0
   -0.6962   -2.7511    1.8130 O   0  0  0  0  0  0  0  0  0  0  0  0
   -1.0571   -0.8067    0.6549 N   0  0  0  0  0  0  0  0  0  0  0  0
   -1.7555   -0.3934    0.0482 H   0  0  0  0  0  0  0  0  0  0  0  0
    0.3041   -0.2169    0.5690 C   0  0  1  0  0  0  0  0  0  0  0  0
    0.1817    0.6459   -0.0899 H   0  0  0  0  0  0  0  0  0  0  0  0
    0.8065    0.3652    1.9047 C   0  0  0  0  0  0  0  0  0  0  0  0
    1.7432    0.9067    1.7367 H   0  0  0  0  0  0  0  0  0  0  0  0
    0.0686    1.0869    2.2692 H   0  0  0  0  0  0  0  0  0  0  0  0
    1.0155   -0.6197    2.9142 O   0  0  0  0  0  0  0  0  0  0  0  0
    1.2083   -0.2237    3.7792 H   0  0  0  0  0  0  0  0  0  0  0  0
    1.4254   -1.0557   -0.1034 C   0  0  0  0  0  0  0  0  0  0  0  0
    1.4097   -2.2754   -0.1835 O   0  0  0  0  0  0  0  0  0  0  0  0
    2.2607   -0.4081   -1.0028 N   0  0  0  0  0  0  0  0  0  0  0  0
    2.2737    0.6059   -0.9852 H   0  0  0  0  0  0  0  0  0  0  0  0
    3.2432   -1.1023   -1.8294 C   0  0  0  0  0  0  0  0  0  0  0  0
    2.7443   -1.7780   -2.5322 H   0  0  0  0  0  0  0  0  0  0  0  0
    3.8323   -0.3808   -2.4033 H   0  0  0  0  0  0  0  0  0  0  0  0
    3.9270   -1.6862   -1.2039 H   0  0  0  0  0  0  0  0  0  0  0  0
  1  2  1  0  0  0  0
  2  3  1  0  0  0  0
  2  4  1  0  0  0  0
  2  5  1  0  0  0  0
  5  6  2  0  0  0  0
  5  7  1  0  0  0  0
  7  8  1  0  0  0  0
  7  9  1  0  0  0  0
  9 10  1  0  0  0  0
  9 11  1  0  0  0  0
  9 16  1  0  0  0  0
 11 12  1  0  0  0  0
 11 13  1  0  0  0  0
 11 14  1  0  0  0  0
 14 15  1  0  0  0  0
 16 17  2  0  0  0  0
 16 18  1  0  0  0  0
 18 19  1  0  0  0  0
 18 20  1  0  0  0  0
 20 21  1  0  0  0  0
 20 22  1  0  0  0  0
 20 23  1  0  0  0  0
M  END
$$$$

  -OEChem-01062216093D

 23 22  0     1  0  0  0  0  0999 V2000
   -2.8089   -3.6936    1.0017 H   0  0  0  0  0  0  0  0  0  0  0  0
   -2.7041   -2.6753    0.6165 C   0  0  0  0  0  0  0  0  0  0  0  0
   -3.5181   -2.0636    1.0122 H   0  0  0  0  0  0  0  0  0  0  0  0
   -2.7715   -2.7055   -0.4736 H   0  0  0  0  0  0  0  0  0  0  0  0
   -1.3658   -2.0952    1.0359 C   0  0  0  0  0  0  0  0  0  0  0  0
   -0.6543   -2.7531    1.7726 O   0  0  0  0  0  0  0  0  0  0  0  0
   -1.0583   -0.8010    0.6460 N   0  0  0  0  0  0  0  0  0  0  0  0
   -1.7514   -0.3958    0.0275 H   0  0  0  0  0  0  0  0  0  0  0  0
    0.3033   -0.2122    0.5717 C   0  0  1  0  0  0  0  0  0  0  0  0
    0.1956    0.6482   -0.0932 H   0  0  0  0  0  0  0  0  0  0  0  0
    0.7952    0.3669    1.9132 C   0  0  0  0  0  0  0  0  0  0  0  0
    1.7314    0.9123    1.7572 H   0  0  0  0  0  0  0  0  0  0  0  0
    0.0519    1.0856    2.2727 H   0  0  0  0  0  0  0  0  0  0  0  0
    0.9958   -0.6204    2.9218 O   0  0  0  0  0  0  0  0  0  0  0  0
    1.1458   -0.2251    3.7958 H   0  0  0  0  0  0  0  0  0  0  0  0
    1.4186   -1.0651   -0.0909 C   0  0  0  0  0  0  0  0  0  0  0  0
    1.2276   -2.2112   -0.4776 O   0  0  0  0  0  0  0  0  0  0  0  0
    2.4500   -0.3904   -0.7287 N   0  0  0  0  0  0  0  0  0  0  0  0
    2.6181    0.5703   -0.4498 H   0  0  0  0  0  0  0  0  0  0  0  0
    3.4461   -1.0541   -1.5641 C   0  0  0  0  0  0  0  0  0  0  0  0
    2.9721   -1.5009   -2.4445 H   0  0  0  0  0  0  0  0  0  0  0  0
    4.1953   -0.3333   -1.9052 H   0  0  0  0  0  0  0  0  0  0  0  0
    3.9558   -1.8426   -1.0001 H   0  0  0  0  0  0  0  0  0  0  0  0
  1  2  1  0  0  0  0
  2  3  1  0  0  0  0
  2  4  1  0  0  0  0
  2  5  1  0  0  0  0
  5  6  2  0  0  0  0
  5  7  1  0  0  0  0
  7  8  1  0  0  0  0
  7  9  1  0  0  0  0
  9 10  1  0  0  0  0
  9 11  1  0  0  0  0
  9 16  1  0  0  0  0
 11 12  1  0  0  0  0
 11 13  1  0  0  0  0
 11 14  1  0  0  0  0
 14 15  1  0  0  0  0
 16 17  2  0  0  0  0
 16 18  1  0  0  0  0
 18 19  1  0  0  0  0
 18 20  1  0  0  0  0
 20 21  1  0  0  0  0
 20 22  1  0  0  0  0
 20 23  1  0  0  0  0
M  END
$$$$

  -OEChem-01062216093D

 23 22  0     1  0  0  0  0  0999 V2000
   -2.7572   -3.7201    0.9571 H   0  0  0  0  0  0  0  0  0  0  0  0
   -2.6974   -2.6761    0.6363 C   0  0  0  0  0  0  0  0  0  0  0  0
   -3.4979   -2.1119    1.1202 H   0  0  0  0  0  0  0  0  0  0  0  0
   -2.8308   -2.6354   -0.4472 H   0  0  0  0  0  0  0  0  0  0  0  0
   -1.3487   -2.0917    1.0129 C   0  0  0  0  0  0  0  0  0  0  0  0
   -0.5889   -2.7656    1.6855 O   0  0  0  0  0  0  0  0  0  0  0  0
   -1.0626   -0.7905    0.6307 N   0  0  0  0  0  0  0  0  0  0  0  0
   -1.7640   -0.3822    0.0235 H   0  0  0  0  0  0  0  0  0  0  0  0
    0.2942   -0.1919    0.5667 C   0  0  1  0  0  0  0  0  0  0  0  0
    0.1967    0.6701   -0.0976 H   0  0  0  0  0  0  0  0  0  0  0  0
    0.7692    0.3813    1.9179 C   0  0  0  0  0  0  0  0  0  0  0  0
    1.7005    0.9387    1.7768 H   0  0  0  0  0  0  0  0  0  0  0  0
    0.0149    1.0898    2.2754 H   0  0  0  0  0  0  0  0  0  0  0  0
    0.9692   -0.6115    2.9218 O   0  0  0  0  0  0  0  0  0  0  0  0
    1.1039   -0.2201    3.8003 H   0  0  0  0  0  0  0  0  0  0  0  0
    1.3983   -1.0549   -0.0993 C   0  0  0  0  0  0  0  0  0  0  0  0
    1.1150   -2.0680   -0.7294 O   0  0  0  0  0  0  0  0  0  0  0  0
    2.5873   -0.4391   -0.4621 N   0  0  0  0  0  0  0  0  0  0  0  0
    2.8451    0.3939    0.0561 H   0  0  0  0  0  0  0  0  0  0  0  0
    3.6189   -1.1050   -1.2511 C   0  0  0  0  0  0  0  0  0  0  0  0
    3.2405   -1.3536   -2.2484 H   0  0  0  0  0  0  0  0  0  0  0  0
    4.4876   -0.4499   -1.3671 H   0  0  0  0  0  0  0  0  0  0  0  0
    3.9435   -2.0271   -0.7572 H   0  0  0  0  0  0  0  0  0  0  0  0
  1  2  1  0  0  0  0
  2  3  1  0  0  0  0
  2  4  1  0  0  0  0
  2  5  1  0  0  0  0
  5  6  2  0  0  0  0
  5  7  1  0  0  0  0
  7  8  1  0  0  0  0
  7  9  1  0  0  0  0
  9 10  1  0  0  0  0
  9 11  1  0  0  0  0
  9 16  1  0  0  0  0
 11 12  1  0  0  0  0
 11 13  1  0  0  0  0
 11 14  1  0  0  0  0
 14 15  1  0  0  0  0
 16 17  2  0  0  0  0
 16 18  1  0  0  0  0
 18 19  1  0  0  0  0
 18 20  1  0  0  0  0
 20 21  1  0  0  0  0
 20 22  1  0  0  0  0
 20 23  1  0  0  0  0
M  END
$$$$

  -OEChem-01062216093D

 23 22  0     1  0  0  0  0  0999 V2000
   -2.7580   -3.7269    0.9287 H   0  0  0  0  0  0  0  0  0  0  0  0
   -2.7028   -2.6695    0.6548 C   0  0  0  0  0  0  0  0  0  0  0  0
   -3.4196   -2.1112    1.2612 H   0  0  0  0  0  0  0  0  0  0  0  0
   -2.9663   -2.5671   -0.4006 H   0  0  0  0  0  0  0  0  0  0  0  0
   -1.3000   -2.1412    0.8909 C   0  0  0  0  0  0  0  0  0  0  0  0
   -0.4568   -2.9043    1.3256 O   0  0  0  0  0  0  0  0  0  0  0  0
   -1.0325   -0.8208    0.5712 N   0  0  0  0  0  0  0  0  0  0  0  0
   -1.7739   -0.3550    0.0601 H   0  0  0  0  0  0  0  0  0  0  0  0
    0.3033   -0.1775    0.5543 C   0  0  1  0  0  0  0  0  0  0  0  0
    0.1376    0.8174    0.1338 H   0  0  0  0  0  0  0  0  0  0  0  0
    0.9303    0.0857    1.9416 C   0  0  0  0  0  0  0  0  0  0  0  0
    1.8268    0.7034    1.8316 H   0  0  0  0  0  0  0  0  0  0  0  0
    0.2106    0.6626    2.5312 H   0  0  0  0  0  0  0  0  0  0  0  0
    1.2646   -1.0900    2.6744 O   0  0  0  0  0  0  0  0  0  0  0  0
    1.4330   -0.8997    3.6119 H   0  0  0  0  0  0  0  0  0  0  0  0
    1.2930   -0.8385   -0.4367 C   0  0  0  0  0  0  0  0  0  0  0  0
    0.8668   -1.5142   -1.3683 O   0  0  0  0  0  0  0  0  0  0  0  0
    2.5829   -0.3459   -0.5569 N   0  0  0  0  0  0  0  0  0  0  0  0
    2.9579    0.1211    0.2624 H   0  0  0  0  0  0  0  0  0  0  0  0
    3.5275   -0.8549   -1.5452 C   0  0  0  0  0  0  0  0  0  0  0  0
    3.1504   -0.6879   -2.5596 H   0  0  0  0  0  0  0  0  0  0  0  0
    4.4890   -0.3420   -1.4483 H   0  0  0  0  0  0  0  0  0  0  0  0
    3.6901   -1.9284   -1.4023 H   0  0  0  0  0  0  0  0  0  0  0  0
  1  2  1  0  0  0  0
  2  3  1  0  0  0  0
  2  4  1  0  0  0  0
  2  5  1  0  0  0  0
  5  6  2  0  0  0  0
  5  7  1  0  0  0  0
  7  8  1  0  0  0  0
  7  9  1  0  0  0  0
  9 10  1  0  0  0  0
  9 11  1  0  0  0  0
  9 16  1  0  0  0  0
 11 12  1  0  0  0  0
 11 13  1  0  0  0  0
 11 14  1  0  0  0  0
 14 15  1  0  0  0  0
 16 17  2  0  0  0  0
 16 18  1  0  0  0  0
 18 19  1  0  0  0  0
 18 20  1  0  0  0  0
 20 21  1  0  0  0  0
 20 22  1  0  0  0  0
 20 23  1  0  0  0  0
M  END
$$$$

  -OEChem-01062216093D

 23 22  0     1  0  0  0  0  0999 V2000
   -2.7260   -3.7319    0.9412 H   0  0  0  0  0  0  0  0  0  0  0  0
   -2.6847   -2.6745    0.6651 C   0  0  0  0  0  0  0  0  0  0  0  0
   -3.3882   -2.1200    1.2901 H   0  0  0  0  0  0  0  0  0  0  0  0
   -2.9772   -2.5739   -0.3828 H   0  0  0  0  0  0  0  0  0  0  0  0
   -1.2794   -2.1377    0.8641 C   0  0  0  0  0  0  0  0  0  0  0  0
   -0.4104   -2.9014    1.2446 O   0  0  0  0  0  0  0  0  0  0  0  0
   -1.0275   -0.8124    0.5548 N   0  0  0  0  0  0  0  0  0  0  0  0
   -1.7800   -0.3363    0.0695 H   0  0  0  0  0  0  0  0  0  0  0  0
    0.3010   -0.1564    0.5566 C   0  0  1  0  0  0  0  0  0  0  0  0
    0.1369    0.8393    0.1371 H   0  0  0  0  0  0  0  0  0  0  0  0
    0.9093    0.1053    1.9526 C   0  0  0  0  0  0  0  0  0  0  0  0
    1.7998    0.7344    1.8570 H   0  0  0  0  0  0  0  0  0  0  0  0
    0.1767    0.6710    2.5371 H   0  0  0  0  0  0  0  0  0  0  0  0
    1.2459   -1.0728    2.6813 O   0  0  0  0  0  0  0  0  0  0  0  0
    1.3788   -0.8895    3.6261 H   0  0  0  0  0  0  0  0  0  0  0  0
    1.2916   -0.8164   -0.4323 C   0  0  0  0  0  0  0  0  0  0  0  0
    0.8649   -1.2882   -1.4821 O   0  0  0  0  0  0  0  0  0  0  0  0
    2.6490   -0.5557   -0.3493 N   0  0  0  0  0  0  0  0  0  0  0  0
    2.9859   -0.3322    0.5826 H   0  0  0  0  0  0  0  0  0  0  0  0
    3.6063   -1.1088   -1.3001 C   0  0  0  0  0  0  0  0  0  0  0  0
    3.3875   -0.7592   -2.3146 H   0  0  0  0  0  0  0  0  0  0  0  0
    4.6213   -0.7932   -1.0405 H   0  0  0  0  0  0  0  0  0  0  0  0
    3.5684   -2.2033   -1.2886 H   0  0  0  0  0  0  0  0  0  0  0  0
  1  2  1  0  0  0  0
  2  3  1  0  0  0  0
  2  4  1  0  0  0  0
  2  5  1  0  0  0  0
  5  6  2  0  0  0  0
  5  7  1  0  0  0  0
  7  8  1  0  0  0  0
  7  9  1  0  0  0  0
  9 10  1  0  0  0  0
  9 11  1  0  0  0  0
  9 16  1  0  0  0  0
 11 12  1  0  0  0  0
 11 13  1  0  0  0  0
 11 14  1  0  0  0  0
 14 15  1  0  0  0  0
 16 17  2  0  0  0  0
 16 18  1  0  0  0  0
 18 19  1  0  0  0  0
 18 20  1  0  0  0  0
 20 21  1  0  0  0  0
 20 22  1  0  0  0  0
 20 23  1  0  0  0  0
M  END
$$$$

  -OEChem-01062216093D

 23 22  0     1  0  0  0  0  0999 V2000
   -2.7086   -3.7355    0.9366 H   0  0  0  0  0  0  0  0  0  0  0  0
   -2.6769   -2.6739    0.6758 C   0  0  0  0  0  0  0  0  0  0  0  0
   -3.3630   -2.1303    1.3295 H   0  0  0  0  0  0  0  0  0  0  0  0
   -2.9997   -2.5579   -0.3616 H   0  0  0  0  0  0  0  0  0  0  0  0
   -1.2673   -2.1372    0.8415 C   0  0  0  0  0  0  0  0  0  0  0  0
   -0.3827   -2.9022    1.1823 O   0  0  0  0  0  0  0  0  0  0  0  0
   -1.0224   -0.8109    0.5349 N   0  0  0  0  0  0  0  0  0  0  0  0
   -1.7876   -0.3214    0.0838 H   0  0  0  0  0  0  0  0  0  0  0  0
    0.2997   -0.1447    0.5527 C   0  0  1  0  0  0  0  0  0  0  0  0
    0.1366    0.8501    0.1298 H   0  0  0  0  0  0  0  0  0  0  0  0
    0.8928    0.1200    1.9547 C   0  0  0  0  0  0  0  0  0  0  0  0
    1.7809    0.7541    1.8647 H   0  0  0  0  0  0  0  0  0  0  0  0
    0.1523    0.6810    2.5335 H   0  0  0  0  0  0  0  0  0  0  0  0
    1.2317   -1.0588    2.6836 O   0  0  0  0  0  0  0  0  0  0  0  0
    1.3670   -0.8728    3.6279 H   0  0  0  0  0  0  0  0  0  0  0  0
    1.2970   -0.8059   -0.4258 C   0  0  0  0  0  0  0  0  0  0  0  0
    0.9176   -1.0855   -1.5590 O   0  0  0  0  0  0  0  0  0  0  0  0
    2.6561   -0.8039   -0.1667 N   0  0  0  0  0  0  0  0  0  0  0  0
    2.8899   -0.7920    0.8237 H   0  0  0  0  0  0  0  0  0  0  0  0
    3.6191   -1.4026   -1.0826 C   0  0  0  0  0  0  0  0  0  0  0  0
    3.5841   -0.9039   -2.0569 H   0  0  0  0  0  0  0  0  0  0  0  0
    4.6326   -1.3032   -0.6825 H   0  0  0  0  0  0  0  0  0  0  0  0
    3.4027   -2.4669   -1.2234 H   0  0  0  0  0  0  0  0  0  0  0  0
  1  2  1  0  0  0  0
  2  3  1  0  0  0  0
  2  4  1  0  0  0  0
  2  5  1  0  0  0  0
  5  6  2  0  0  0  0
  5  7  1  0  0  0  0
  7  8  1  0  0  0  0
  7  9  1  0  0  0  0
  9 10  1  0  0  0  0
  9 11  1  0  0  0  0
  9 16  1  0  0  0  0
 11 12  1  0  0  0  0
 11 13  1  0  0  0  0
 11 14  1  0  0  0  0
 14 15  1  0  0  0  0
 16 17  2  0  0  0  0
 16 18  1  0  0  0  0
 18 19  1  0  0  0  0
 18 20  1  0  0  0  0
 20 21  1  0  0  0  0
 20 22  1  0  0  0  0
 20 23  1  0  0  0  0
M  END
$$$$

  -OEChem-01062216093D

 23 22  0     1  0  0  0  0  0999 V2000
   -2.6973   -3.7330    0.9475 H   0  0  0  0  0  0  0  0  0  0  0  0
   -2.6727   -2.6698    0.6919 C   0  0  0  0  0  0  0  0  0  0  0  0
   -3.3366   -2.1299    1.3711 H   0  0  0  0  0  0  0  0  0  0  0  0
   -3.0294   -2.5466   -0.3335 H   0  0  0  0  0  0  0  0  0  0  0  0
   -1.2574   -2.1365    0.8142 C   0  0  0  0  0  0  0  0  0  0  0  0
   -0.3598   -2.9061    1.1088 O   0  0  0  0  0  0  0  0  0  0  0  0
   -1.0166   -0.8090    0.5113 N   0  0  0  0  0  0  0  0  0  0  0  0
   -1.7980   -0.2983    0.1142 H   0  0  0  0  0  0  0  0  0  0  0  0
    0.3014   -0.1369    0.5426 C   0  0  1  0  0  0  0  0  0  0  0  0
    0.1395    0.8591    0.1216 H   0  0  0  0  0  0  0  0  0  0  0  0
    0.8785    0.1220    1.9526 C   0  0  0  0  0  0  0  0  0  0  0  0
    1.7670    0.7567    1.8706 H   0  0  0  0  0  0  0  0  0  0  0  0
    0.1327    0.6798    2.5276 H   0  0  0  0  0  0  0  0  0  0  0  0
    1.2155   -1.0601    2.6801 O   0  0  0  0  0  0  0  0  0  0  0  0
    1.3616   -0.8704    3.6225 H   0  0  0  0  0  0  0  0  0  0  0  0
    1.3088   -0.7935   -0.4266 C   0  0  0  0  0  0  0  0  0  0  0  0
    1.0138   -0.8845   -1.6140 O   0  0  0  0  0  0  0  0  0  0  0  0
    2.6059   -1.0635   -0.0319 N   0  0  0  0  0  0  0  0  0  0  0  0
    2.7024   -1.2105    0.9726 H   0  0  0  0  0  0  0  0  0  0  0  0
    3.5611   -1.7251   -0.9111 C   0  0  0  0  0  0  0  0  0  0  0  0
    3.7264   -1.1309   -1.8160 H   0  0  0  0  0  0  0  0  0  0  0  0
    4.5213   -1.8475   -0.4011 H   0  0  0  0  0  0  0  0  0  0  0  0
    3.1921   -2.7144   -1.2014 H   0  0  0  0  0  0  0  0  0  0  0  0
  1  2  1  0  0  0  0
  2  3  1  0  0  0  0
  2  4  1  0  0  0  0
  2  5  1  0  0  0  0
  5  6  2  0  0  0  0
  5  7  1  0  0  0  0
  7  8  1  0  0  0  0
  7  9  1  0  0  0  0
  9 10  1  0  0  0  0
  9 11  1  0  0  0  0
  9 16  1  0  0  0  0
 11 12  1  0  0  0  0
 11 13  1  0  0  0  0
 11 14  1  0  0  0  0
 14 15  1  0  0  0  0
 16 17  2  0  0  0  0
 16 18  1  0  0  0  0
 18 19  1  0  0  0  0
 18 20  1  0  0  0  0
 20 21  1  0  0  0  0
 20 22  1  0  0  0  0
 20 23  1  0  0  0  0
M  END
$$$$

  -OEChem-01062216093D

 23 22  0     1  0  0  0  0  0999 V2000
   -2.6865   -3.7257    0.9671 H   0  0  0  0  0  0  0  0  0  0  0  0
   -2.6653   -2.6629    0.7100 C   0  0  0  0  0  0  0  0  0  0  0  0
   -3.2975   -2.1184    1.4151 H   0  0  0  0  0  0  0  0  0  0  0  0
   -3.0625   -2.5381   -0.3002 H   0  0  0  0  0  0  0  0  0  0  0  0
   -1.2434   -2.1379    0.7761 C   0  0  0  0  0  0  0  0  0  0  0  0
   -0.3363   -2.9142    1.0221 O   0  0  0  0  0  0  0  0  0  0  0  0
   -1.0064   -0.8082    0.4793 N   0  0  0  0  0  0  0  0  0  0  0  0
   -1.8051   -0.2734    0.1549 H   0  0  0  0  0  0  0  0  0  0  0  0
    0.3080   -0.1318    0.5289 C   0  0  1  0  0  0  0  0  0  0  0  0
    0.1481    0.8666    0.1122 H   0  0  0  0  0  0  0  0  0  0  0  0
    0.8563    0.1162    1.9521 C   0  0  0  0  0  0  0  0  0  0  0  0
    1.7487    0.7476    1.8873 H   0  0  0  0  0  0  0  0  0  0  0  0
    0.1019    0.6726    2.5173 H   0  0  0  0  0  0  0  0  0  0  0  0
    1.1822   -1.0725    2.6777 O   0  0  0  0  0  0  0  0  0  0  0  0
    1.3577   -0.8803    3.6149 H   0  0  0  0  0  0  0  0  0  0  0  0
    1.3324   -0.7780   -0.4271 C   0  0  0  0  0  0  0  0  0  0  0  0
    1.1525   -0.6908   -1.6372 O   0  0  0  0  0  0  0  0  0  0  0  0
    2.5094   -1.3197    0.0517 N   0  0  0  0  0  0  0  0  0  0  0  0
    2.4619   -1.5774    1.0390 H   0  0  0  0  0  0  0  0  0  0  0  0
    3.4293   -2.0558   -0.8046 C   0  0  0  0  0  0  0  0  0  0  0  0
    3.7931   -1.4178   -1.6167 H   0  0  0  0  0  0  0  0  0  0  0  0
    4.2911   -2.3987   -0.2245 H   0  0  0  0  0  0  0  0  0  0  0  0
    2.9308   -2.9292   -1.2380 H   0  0  0  0  0  0  0  0  0  0  0  0
  1  2  1  0  0  0  0
  2  3  1  0  0  0  0
  2  4  1  0  0  0  0
  2  5  1  0  0  0  0
  5  6  2  0  0  0  0
  5  7  1  0  0  0  0
  7  8  1  0  0  0  0
  7  9  1  0  0  0  0
  9 10  1  0  0  0  0
  9 11  1  0  0  0  0
  9 16  1  0  0  0  0
 11 12  1  0  0  0  0
 11 13  1  0  0  0  0
 11 14  1  0  0  0  0
 14 15  1  0  0  0  0
 16 17  2  0  0  0  0
 16 18  1  0  0  0  0
 18 19  1  0  0  0  0
 18 20  1  0  0  0  0
 20 21  1  0  0  0  0
 20 22  1  0  0  0  0
 20 23  1  0  0  0  0
M  END
$$$$

  -OEChem-01062216093D

 23 22  0     1  0  0  0  0  0999 V2000
   -2.7034   -3.7051    1.0048 H   0  0  0  0  0  0  0  0  0  0  0  0
   -2.6763   -2.6459    0.7334 C   0  0  0  0  0  0  0  0  0  0  0  0
   -3.2765   -2.0840    1.4527 H   0  0  0  0  0  0  0  0  0  0  0  0
   -3.1063   -2.5277   -0.2641 H   0  0  0  0  0  0  0  0  0  0  0  0
   -1.2456   -2.1409    0.7448 C   0  0  0  0  0  0  0  0  0  0  0  0
   -0.3401   -2.9303    0.9537 O   0  0  0  0  0  0  0  0  0  0  0  0
   -1.0006   -0.8129    0.4464 N   0  0  0  0  0  0  0  0  0  0  0  0
   -1.8093   -0.2533    0.1974 H   0  0  0  0  0  0  0  0  0  0  0  0
    0.3151   -0.1402    0.5110 C   0  0  1  0  0  0  0  0  0  0  0  0
    0.1619    0.8597    0.0950 H   0  0  0  0  0  0  0  0  0  0  0  0
    0.8330    0.1002    1.9465 C   0  0  0  0  0  0  0  0  0  0  0  0
    1.7322    0.7235    1.8995 H   0  0  0  0  0  0  0  0  0  0  0  0
    0.0728    0.6612    2.4995 H   0  0  0  0  0  0  0  0  0  0  0  0
    1.1379   -1.0945    2.6736 O   0  0  0  0  0  0  0  0  0  0  0  0
    1.3633   -0.8978    3.5992 H   0  0  0  0  0  0  0  0  0  0  0  0
    1.3630   -0.7801   -0.4233 C   0  0  0  0  0  0  0  0  0  0  0  0
    1.3344   -0.5161   -1.6203 O   0  0  0  0  0  0  0  0  0  0  0  0
    2.3708   -1.5769    0.0812 N   0  0  0  0  0  0  0  0  0  0  0  0
    2.1723   -1.9306    1.0199 H   0  0  0  0  0  0  0  0  0  0  0  0
    3.2567   -2.3538   -0.7739 C   0  0  0  0  0  0  0  0  0  0  0  0
    3.7876   -1.7005   -1.4740 H   0  0  0  0  0  0  0  0  0  0  0  0
    3.9983   -2.8812   -0.1664 H   0  0  0  0  0  0  0  0  0  0  0  0
    2.6843   -3.0924   -1.3447 H   0  0  0  0  0  0  0  0  0  0  0  0
  1  2  1  0  0  0  0
  2  3  1  0  0  0  0
  2  4  1  0  0  0  0
  2  5  1  0  0  0  0
  5  6  2  0  0  0  0
  5  7  1  0  0  0  0
  7  8  1  0  0  0  0
  7  9  1  0  0  0  0
  9 10  1  0  0  0  0
  9 11  1  0  0  0  0
  9 16  1  0  0  0  0
 11 12  1  0  0  0  0
 11 13  1  0  0  0  0
 11 14  1  0  0  0  0
 14 15  1  0  0  0  0
 16 17  2  0  0  0  0
 16 18  1  0  0  0  0
 18 19  1  0  0  0  0
 18 20  1  0  0  0  0
 20 21  1  0  0  0  0
 20 22  1  0  0  0  0
 20 23  1  0  0  0  0
M  END
$$$$

  -OEChem-01062216093D

 23 22  0     1  0  0  0  0  0999 V2000
   -2.7577   -3.6791    1.0348 H   0  0  0  0  0  0  0  0  0  0  0  0
   -2.7127   -2.6226    0.7556 C   0  0  0  0  0  0  0  0  0  0  0  0
   -3.2961   -2.0445    1.4761 H   0  0  0  0  0  0  0  0  0  0  0  0
   -3.1492   -2.5030   -0.2390 H   0  0  0  0  0  0  0  0  0  0  0  0
   -1.2724   -2.1456    0.7501 C   0  0  0  0  0  0  0  0  0  0  0  0
   -0.3819   -2.9511    0.9628 O   0  0  0  0  0  0  0  0  0  0  0  0
   -1.0052   -0.8253    0.4356 N   0  0  0  0  0  0  0  0  0  0  0  0
   -1.8110   -0.2497    0.2145 H   0  0  0  0  0  0  0  0  0  0  0  0
    0.3171   -0.1630    0.4970 C   0  0  1  0  0  0  0  0  0  0  0  0
    0.1699    0.8350    0.0737 H   0  0  0  0  0  0  0  0  0  0  0  0
    0.8232    0.0838    1.9341 C   0  0  0  0  0  0  0  0  0  0  0  0
    1.7315    0.6938    1.8875 H   0  0  0  0  0  0  0  0  0  0  0  0
    0.0669    0.6591    2.4776 H   0  0  0  0  0  0  0  0  0  0  0  0
    1.1088   -1.1091    2.6711 O   0  0  0  0  0  0  0  0  0  0  0  0
    1.3925   -0.9045    3.5786 H   0  0  0  0  0  0  0  0  0  0  0  0
    1.3820   -0.8072   -0.4153 C   0  0  0  0  0  0  0  0  0  0  0  0
    1.5306   -0.3785   -1.5542 O   0  0  0  0  0  0  0  0  0  0  0  0
    2.1911   -1.8250    0.0454 N   0  0  0  0  0  0  0  0  0  0  0  0
    1.8390   -2.2673    0.8989 H   0  0  0  0  0  0  0  0  0  0  0  0
    3.0635   -2.5986   -0.8256 C   0  0  0  0  0  0  0  0  0  0  0  0
    3.7648   -1.9415   -1.3501 H   0  0  0  0  0  0  0  0  0  0  0  0
    3.6406   -3.3176   -0.2366 H   0  0  0  0  0  0  0  0  0  0  0  0
    2.4730   -3.1484   -1.5657 H   0  0  0  0  0  0  0  0  0  0  0  0
  1  2  1  0  0  0  0
  2  3  1  0  0  0  0
  2  4  1  0  0  0  0
  2  5  1  0  0  0  0
  5  6  2  0  0  0  0
  5  7  1  0  0  0  0
  7  8  1  0  0  0  0
  7  9  1  0  0  0  0
  9 10  1  0  0  0  0
  9 11  1  0  0  0  0
  9 16  1  0  0  0  0
 11 12  1  0  0  0  0
 11 13  1  0  0  0  0
 11 14  1  0  0  0  0
 14 15  1  0  0  0  0
 16 17  2  0  0  0  0
 16 18  1  0  0  0  0
 18 19  1  0  0  0  0
 18 20  1  0  0  0  0
 20 21  1  0  0  0  0
 20 22  1  0  0  0  0
 20 23  1  0  0  0  0
M  END
$$$$

  -OEChem-01062216093D

 23 22  0     1  0  0  0  0  0999 V2000
   -2.8600   -3.6374    1.0827 H   0  0  0  0  0  0  0  0  0  0  0  0
   -2.7831   -2.5851    0.7940 C   0  0  0  0  0  0  0  0  0  0  0  0
   -3.3429   -1.9825    1.5131 H   0  0  0  0  0  0  0  0  0  0  0  0
   -3.2221   -2.4604   -0.1988 H   0  0  0  0  0  0  0  0  0  0  0  0
   -1.3283   -2.1536    0.7751 C   0  0  0  0  0  0  0  0  0  0  0  0
   -0.4657   -2.9858    0.9987 O   0  0  0  0  0  0  0  0  0  0  0  0
   -1.0254   -0.8463    0.4368 N   0  0  0  0  0  0  0  0  0  0  0  0
   -1.8227   -0.2547    0.2270 H   0  0  0  0  0  0  0  0  0  0  0  0
    0.3071   -0.1981    0.4780 C   0  0  1  0  0  0  0  0  0  0  0  0
    0.1619    0.7960    0.0446 H   0  0  0  0  0  0  0  0  0  0  0  0
    0.8233    0.0596    1.9076 C   0  0  0  0  0  0  0  0  0  0  0  0
    1.7403    0.6555    1.8494 H   0  0  0  0  0  0  0  0  0  0  0  0
    0.0790    0.6509    2.4504 H   0  0  0  0  0  0  0  0  0  0  0  0
    1.0953   -1.1330    2.6484 O   0  0  0  0  0  0  0  0  0  0  0  0
    1.4318   -0.9285    3.5373 H   0  0  0  0  0  0  0  0  0  0  0  0
    1.3847   -0.8489   -0.4162 C   0  0  0  0  0  0  0  0  0  0  0  0
    1.7264   -0.2778   -1.4457 O   0  0  0  0  0  0  0  0  0  0  0  0
    1.9882   -2.0392   -0.0680 N   0  0  0  0  0  0  0  0  0  0  0  0
    1.5079   -2.5454    0.6830 H   0  0  0  0  0  0  0  0  0  0  0  0
    2.8843   -2.7745   -0.9482 C   0  0  0  0  0  0  0  0  0  0  0  0
    3.7371   -2.1511   -1.2369 H   0  0  0  0  0  0  0  0  0  0  0  0
    3.2658   -3.6636   -0.4371 H   0  0  0  0  0  0  0  0  0  0  0  0
    2.3556   -3.0922   -1.8527 H   0  0  0  0  0  0  0  0  0  0  0  0
  1  2  1  0  0  0  0
  2  3  1  0  0  0  0
  2  4  1  0  0  0  0
  2  5  1  0  0  0  0
  5  6  2  0  0  0  0
  5  7  1  0  0  0  0
  7  8  1  0  0  0  0
  7  9  1  0  0  0  0
  9 10  1  0  0  0  0
  9 11  1  0  0  0  0
  9 16  1  0  0  0  0
 11 12  1  0  0  0  0
 11 13  1  0  0  0  0
 11 14  1  0  0  0  0
 14 15  1  0  0  0  0
 16 17  2  0  0  0  0
 16 18  1  0  0  0  0
 18 19  1  0  0  0  0
 18 20  1  0  0  0  0
 20 21  1  0  0  0  0
 20 22  1  0  0  0  0
 20 23  1  0  0  0  0
M  END
$$$$

  -OEChem-01062216093D

 23 22  0     1  0  0  0  0  0999 V2000
   -2.9824   -3.5730    1.1674 H   0  0  0  0  0  0  0  0  0  0  0  0
   -2.8697   -2.5302    0.8574 C   0  0  0  0  0  0  0  0  0  0  0  0
   -3.3854   -1.8926    1.5793 H   0  0  0  0  0  0  0  0  0  0  0  0
   -3.3293   -2.4047   -0.1259 H   0  0  0  0  0  0  0  0  0  0  0  0
   -1.3998   -2.1589    0.7945 C   0  0  0  0  0  0  0  0  0  0  0  0
   -0.5690   -3.0248    1.0084 O   0  0  0  0  0  0  0  0  0  0  0  0
   -1.0600   -0.8657    0.4360 N   0  0  0  0  0  0  0  0  0  0  0  0
   -1.8485   -0.2534    0.2541 H   0  0  0  0  0  0  0  0  0  0  0  0
    0.2838   -0.2347    0.4465 C   0  0  1  0  0  0  0  0  0  0  0  0
    0.1390    0.7582    0.0102 H   0  0  0  0  0  0  0  0  0  0  0  0
    0.8267    0.0182    1.8652 C   0  0  0  0  0  0  0  0  0  0  0  0
    1.7510    0.6014    1.7934 H   0  0  0  0  0  0  0  0  0  0  0  0
    0.0998    0.6181    2.4220 H   0  0  0  0  0  0  0  0  0  0  0  0
    1.0917   -1.1822    2.5948 O   0  0  0  0  0  0  0  0  0  0  0  0
    1.4558   -0.9895    3.4753 H   0  0  0  0  0  0  0  0  0  0  0  0
    1.3653   -0.8871   -0.4430 C   0  0  0  0  0  0  0  0  0  0  0  0
    1.8937   -0.2116   -1.3189 O   0  0  0  0  0  0  0  0  0  0  0  0
    1.7683   -2.1945   -0.2718 N   0  0  0  0  0  0  0  0  0  0  0  0
    1.2260   -2.7338    0.4110 H   0  0  0  0  0  0  0  0  0  0  0  0
    2.7267   -2.8783   -1.1268 C   0  0  0  0  0  0  0  0  0  0  0  0
    3.6780   -2.3365   -1.1464 H   0  0  0  0  0  0  0  0  0  0  0  0
    2.9129   -3.8880   -0.7487 H   0  0  0  0  0  0  0  0  0  0  0  0
    2.3412   -2.9546   -2.1485 H   0  0  0  0  0  0  0  0  0  0  0  0
  1  2  1  0  0  0  0
  2  3  1  0  0  0  0
  2  4  1  0  0  0  0
  2  5  1  0  0  0  0
  5  6  2  0  0  0  0
  5  7  1  0  0  0  0
  7  8  1  0  0  0  0
  7  9  1  0  0  0  0
  9 10  1  0  0  0  0
  9 11  1  0  0  0  0
  9 16  1  0  0  0  0
 11 12  1  0  0  0  0
 11 13  1  0  0  0  0
 11 14  1  0  0  0  0
 14 15  1  0  0  0  0
 16 17  2  0  0  0  0
 16 18  1  0  0  0  0
 18 19  1  0  0  0  0
 18 20  1  0  0  0  0
 20 21  1  0  0  0  0
 20 22  1  0  0  0  0
 20 23  1  0  0  0  0
M  END
$$$$

  -OEChem-01062216093D

 23 22  0     1  0  0  0  0  0999 V2000
   -3.0698   -3.5323    1.2288 H   0  0  0  0  0  0  0  0  0  0  0  0
   -2.9404   -2.4884    0.9290 C   0  0  0  0  0  0  0  0  0  0  0  0
   -3.4128   -1.8483    1.6777 H   0  0  0  0  0  0  0  0  0  0  0  0
   -3.4316   -2.3372   -0.0352 H   0  0  0  0  0  0  0  0  0  0  0  0
   -1.4640   -2.1549    0.8175 C   0  0  0  0  0  0  0  0  0  0  0  0
   -0.6513   -3.0439    1.0023 O   0  0  0  0  0  0  0  0  0  0  0  0
   -1.1046   -0.8706    0.4456 N   0  0  0  0  0  0  0  0  0  0  0  0
   -1.8871   -0.2415    0.2977 H   0  0  0  0  0  0  0  0  0  0  0  0
    0.2494   -0.2581    0.4108 C   0  0  1  0  0  0  0  0  0  0  0  0
    0.1018    0.7371   -0.0191 H   0  0  0  0  0  0  0  0  0  0  0  0
    0.8407   -0.0195    1.8117 C   0  0  0  0  0  0  0  0  0  0  0  0
    1.7710    0.5505    1.7147 H   0  0  0  0  0  0  0  0  0  0  0  0
    0.1412    0.5872    2.3952 H   0  0  0  0  0  0  0  0  0  0  0  0
    1.1095   -1.2303    2.5217 O   0  0  0  0  0  0  0  0  0  0  0  0
    1.5088   -1.0516    3.3897 H   0  0  0  0  0  0  0  0  0  0  0  0
    1.3123   -0.9095   -0.5028 C   0  0  0  0  0  0  0  0  0  0  0  0
    2.0092   -0.1785   -1.1976 O   0  0  0  0  0  0  0  0  0  0  0  0
    1.5157   -2.2722   -0.5612 N   0  0  0  0  0  0  0  0  0  0  0  0
    0.9613   -2.8310    0.0950 H   0  0  0  0  0  0  0  0  0  0  0  0
    2.5663   -2.9139   -1.3374 C   0  0  0  0  0  0  0  0  0  0  0  0
    3.5521   -2.5889   -0.9893 H   0  0  0  0  0  0  0  0  0  0  0  0
    2.5014   -4.0009   -1.2302 H   0  0  0  0  0  0  0  0  0  0  0  0
    2.4656   -2.6646   -2.3987 H   0  0  0  0  0  0  0  0  0  0  0  0
  1  2  1  0  0  0  0
  2  3  1  0  0  0  0
  2  4  1  0  0  0  0
  2  5  1  0  0  0  0
  5  6  2  0  0  0  0
  5  7  1  0  0  0  0
  7  8  1  0  0  0  0
  7  9  1  0  0  0  0
  9 10  1  0  0  0  0
  9 11  1  0  0  0  0
  9 16  1  0  0  0  0
 11 12  1  0  0  0  0
 11 13  1  0  0  0  0
 11 14  1  0  0  0  0
 14 15  1  0  0  0  0
 16 17  2  0  0  0  0
 16 18  1  0  0  0  0
 18 19  1  0  0  0  0
 18 20  1  0  0  0  0
 20 21  1  0  0  0  0
 20 22  1  0  0  0  0
 20 23  1  0  0  0  0
M  END
$$$$

  -OEChem-01062216093D

 23 22  0     1  0  0  0  0  0999 V2000
   -3.0938   -3.5041    1.2934 H   0  0  0  0  0  0  0  0  0  0  0  0
   -2.9630   -2.4603    0.9934 C   0  0  0  0  0  0  0  0  0  0  0  0
   -3.3819   -1.8176    1.7715 H   0  0  0  0  0  0  0  0  0  0  0  0
   -3.5041   -2.2931    0.0589 H   0  0  0  0  0  0  0  0  0  0  0  0
   -1.4896   -2.1514    0.8026 C   0  0  0  0  0  0  0  0  0  0  0  0
   -0.6847   -3.0596    0.9129 O   0  0  0  0  0  0  0  0  0  0  0  0
   -1.1277   -0.8678    0.4312 N   0  0  0  0  0  0  0  0  0  0  0  0
   -1.9067   -0.2226    0.3496 H   0  0  0  0  0  0  0  0  0  0  0  0
    0.2304   -0.2641    0.3847 C   0  0  1  0  0  0  0  0  0  0  0  0
    0.0852    0.7342   -0.0385 H   0  0  0  0  0  0  0  0  0  0  0  0
    0.8276   -0.0442    1.7864 C   0  0  0  0  0  0  0  0  0  0  0  0
    1.7623    0.5195    1.6946 H   0  0  0  0  0  0  0  0  0  0  0  0
    0.1348    0.5606    2.3798 H   0  0  0  0  0  0  0  0  0  0  0  0
    1.0878   -1.2671    2.4785 O   0  0  0  0  0  0  0  0  0  0  0  0
    1.5163   -1.1051    3.3358 H   0  0  0  0  0  0  0  0  0  0  0  0
    1.2941   -0.9055   -0.5366 C   0  0  0  0  0  0  0  0  0  0  0  0
    2.1330   -0.1710   -1.0467 O   0  0  0  0  0  0  0  0  0  0  0  0
    1.3173   -2.2507   -0.8431 N   0  0  0  0  0  0  0  0  0  0  0  0
    0.7148   -2.8360   -0.2575 H   0  0  0  0  0  0  0  0  0  0  0  0
    2.3855   -2.8865   -1.6006 C   0  0  0  0  0  0  0  0  0  0  0  0
    3.3387   -2.7917   -1.0707 H   0  0  0  0  0  0  0  0  0  0  0  0
    2.1669   -3.9499   -1.7364 H   0  0  0  0  0  0  0  0  0  0  0  0
    2.4823   -2.4260   -2.5892 H   0  0  0  0  0  0  0  0  0  0  0  0
  1  2  1  0  0  0  0
  2  3  1  0  0  0  0
  2  4  1  0  0  0  0
  2  5  1  0  0  0  0
  5  6  2  0  0  0  0
  5  7  1  0  0  0  0
  7  8  1  0  0  0  0
  7  9  1  0  0  0  0
  9 10  1  0  0  0  0
  9 11  1  0  0  0  0
  9 16  1  0  0  0  0
 11 12  1  0  0  0  0
 11 13  1  0  0  0  0
 11 14  1  0  0  0  0
 14 15  1  0  0  0  0
 16 17  2  0  0  0  0
 16 18  1  0  0  0  0
 18 19  1  0  0  0  0
 18 20  1  0  0  0  0
 20 21  1  0  0  0  0
 20 22  1  0  0  0  0
 20 23  1  0  0  0  0
M  END
$$$$

  -OEChem-01062216093D

 23 22  0     1  0  0  0  0  0999 V2000
   -3.0652   -3.4943    1.3443 H   0  0  0  0  0  0  0  0  0  0  0  0
   -2.9491   -2.4472    1.0498 C   0  0  0  0  0  0  0  0  0  0  0  0
   -3.3068   -1.8133    1.8646 H   0  0  0  0  0  0  0  0  0  0  0  0
   -3.5541   -2.2636    0.1587 H   0  0  0  0  0  0  0  0  0  0  0  0
   -1.4907   -2.1450    0.7593 C   0  0  0  0  0  0  0  0  0  0  0  0
   -0.6908   -3.0644    0.7633 O   0  0  0  0  0  0  0  0  0  0  0  0
   -1.1380   -0.8565    0.3969 N   0  0  0  0  0  0  0  0  0  0  0  0
   -1.9104   -0.1985    0.4067 H   0  0  0  0  0  0  0  0  0  0  0  0
    0.2240   -0.2599    0.3657 C   0  0  1  0  0  0  0  0  0  0  0  0
    0.0909    0.7417   -0.0531 H   0  0  0  0  0  0  0  0  0  0  0  0
    0.7947   -0.0565    1.7813 C   0  0  0  0  0  0  0  0  0  0  0  0
    1.7350    0.5015    1.7149 H   0  0  0  0  0  0  0  0  0  0  0  0
    0.0949    0.5471    2.3680 H   0  0  0  0  0  0  0  0  0  0  0  0
    1.0316   -1.2903    2.4627 O   0  0  0  0  0  0  0  0  0  0  0  0
    1.4902   -1.1453    3.3074 H   0  0  0  0  0  0  0  0  0  0  0  0
    1.2983   -0.8949   -0.5492 C   0  0  0  0  0  0  0  0  0  0  0  0
    2.2600   -0.2067   -0.8743 O   0  0  0  0  0  0  0  0  0  0  0  0
    1.1650   -2.1504   -1.1078 N   0  0  0  0  0  0  0  0  0  0  0  0
    0.4911   -2.7520   -0.6269 H   0  0  0  0  0  0  0  0  0  0  0  0
    2.2151   -2.7868   -1.8906 C   0  0  0  0  0  0  0  0  0  0  0  0
    3.1161   -2.9224   -1.2834 H   0  0  0  0  0  0  0  0  0  0  0  0
    1.8799   -3.7678   -2.2405 H   0  0  0  0  0  0  0  0  0  0  0  0
    2.4658   -2.1770   -2.7647 H   0  0  0  0  0  0  0  0  0  0  0  0
  1  2  1  0  0  0  0
  2  3  1  0  0  0  0
  2  4  1  0  0  0  0
  2  5  1  0  0  0  0
  5  6  2  0  0  0  0
  5  7  1  0  0  0  0
  7  8  1  0  0  0  0
  7  9  1  0  0  0  0
  9 10  1  0  0  0  0
  9 11  1  0  0  0  0
  9 16  1  0  0  0  0
 11 12  1  0  0  0  0
 11 13  1  0  0  0  0
 11 14  1  0  0  0  0
 14 15  1  0  0  0  0
 16 17  2  0  0  0  0
 16 18  1  0  0  0  0
 18 19  1  0  0  0  0
 18 20  1  0  0  0  0
 20 21  1  0  0  0  0
 20 22  1  0  0  0  0
 20 23  1  0  0  0  0
M  END
$$$$

  -OEChem-01062216093D

 23 22  0     1  0  0  0  0  0999 V2000
   -2.9983   -3.5026    1.3677 H   0  0  0  0  0  0  0  0  0  0  0  0
   -2.9052   -2.4482    1.0921 C   0  0  0  0  0  0  0  0  0  0  0  0
   -3.2029   -1.8362    1.9467 H   0  0  0  0  0  0  0  0  0  0  0  0
   -3.5736   -2.2429    0.2526 H   0  0  0  0  0  0  0  0  0  0  0  0
   -1.4723   -2.1355    0.7040 C   0  0  0  0  0  0  0  0  0  0  0  0
   -0.6789   -3.0532    0.5866 O   0  0  0  0  0  0  0  0  0  0  0  0
   -1.1397   -0.8388    0.3549 N   0  0  0  0  0  0  0  0  0  0  0  0
   -1.9054   -0.1802    0.4523 H   0  0  0  0  0  0  0  0  0  0  0  0
    0.2239   -0.2466    0.3527 C   0  0  1  0  0  0  0  0  0  0  0  0
    0.1059    0.7592   -0.0600 H   0  0  0  0  0  0  0  0  0  0  0  0
    0.7590   -0.0633    1.7860 C   0  0  0  0  0  0  0  0  0  0  0  0
    1.7028    0.4914    1.7523 H   0  0  0  0  0  0  0  0  0  0  0  0
    0.0477    0.5357    2.3634 H   0  0  0  0  0  0  0  0  0  0  0  0
    0.9731   -1.3084    2.4552 O   0  0  0  0  0  0  0  0  0  0  0  0
    1.4613   -1.1826    3.2863 H   0  0  0  0  0  0  0  0  0  0  0  0
    1.3060   -0.8828   -0.5522 C   0  0  0  0  0  0  0  0  0  0  0  0
    2.3670   -0.2858   -0.7021 O   0  0  0  0  0  0  0  0  0  0  0  0
    1.0449   -1.9790   -1.3510 N   0  0  0  0  0  0  0  0  0  0  0  0
    0.2948   -2.5719   -0.9885 H   0  0  0  0  0  0  0  0  0  0  0  0
    2.0694   -2.6127   -2.1700 C   0  0  0  0  0  0  0  0  0  0  0  0
    2.8875   -2.9813   -1.5424 H   0  0  0  0  0  0  0  0  0  0  0  0
    1.6425   -3.4582   -2.7176 H   0  0  0  0  0  0  0  0  0  0  0  0
    2.4749   -1.9017   -2.8973 H   0  0  0  0  0  0  0  0  0  0  0  0
  1  2  1  0  0  0  0
  2  3  1  0  0  0  0
  2  4  1  0  0  0  0
  2  5  1  0  0  0  0
  5  6  2  0  0  0  0
  5  7  1  0  0  0  0
  7  8  1  0  0  0  0
  7  9  1  0  0  0  0
  9 10  1  0  0  0  0
  9 11  1  0  0  0  0
  9 16  1  0  0  0  0
 11 12  1  0  0  0  0
 11 13  1  0  0  0  0
 11 14  1  0  0  0  0
 14 15  1  0  0  0  0
 16 17  2  0  0  0  0
 16 18  1  0  0  0  0
 18 19  1  0  0  0  0
 18 20  1  0  0  0  0
 20 21  1  0  0  0  0
 20 22  1  0  0  0  0
 20 23  1  0  0  0  0
M  END
$$$$

  -OEChem-01062216093D

 23 22  0     1  0  0  0  0  0999 V2000
   -2.9177   -3.5285    1.3468 H   0  0  0  0  0  0  0  0  0  0  0  0
   -2.8405   -2.4590    1.1313 C   0  0  0  0  0  0  0  0  0  0  0  0
   -3.0576   -1.9023    2.0460 H   0  0  0  0  0  0  0  0  0  0  0  0
   -3.5780   -2.1990    0.3683 H   0  0  0  0  0  0  0  0  0  0  0  0
   -1.4440   -2.1254    0.6410 C   0  0  0  0  0  0  0  0  0  0  0  0
   -0.6634   -3.0303    0.4014 O   0  0  0  0  0  0  0  0  0  0  0  0
   -1.1375   -0.8200    0.3042 N   0  0  0  0  0  0  0  0  0  0  0  0
   -1.8947   -0.1695    0.4856 H   0  0  0  0  0  0  0  0  0  0  0  0
    0.2267   -0.2329    0.3398 C   0  0  1  0  0  0  0  0  0  0  0  0
    0.1272    0.7756   -0.0709 H   0  0  0  0  0  0  0  0  0  0  0  0
    0.7173   -0.0615    1.7913 C   0  0  0  0  0  0  0  0  0  0  0  0
    1.6639    0.4892    1.7914 H   0  0  0  0  0  0  0  0  0  0  0  0
   -0.0081    0.5370    2.3512 H   0  0  0  0  0  0  0  0  0  0  0  0
    0.9048   -1.3132    2.4572 O   0  0  0  0  0  0  0  0  0  0  0  0
    1.4170   -1.2014    3.2761 H   0  0  0  0  0  0  0  0  0  0  0  0
    1.3154   -0.8788   -0.5506 C   0  0  0  0  0  0  0  0  0  0  0  0
    2.4529   -0.4196   -0.5288 O   0  0  0  0  0  0  0  0  0  0  0  0
    0.9749   -1.7532   -1.5652 N   0  0  0  0  0  0  0  0  0  0  0  0
    0.1401   -2.2996   -1.3482 H   0  0  0  0  0  0  0  0  0  0  0  0
    1.9775   -2.3775   -2.4185 C   0  0  0  0  0  0  0  0  0  0  0  0
    2.6624   -2.9873   -1.8201 H   0  0  0  0  0  0  0  0  0  0  0  0
    1.4929   -3.0220   -3.1581 H   0  0  0  0  0  0  0  0  0  0  0  0
    2.5568   -1.6173   -2.9530 H   0  0  0  0  0  0  0  0  0  0  0  0
  1  2  1  0  0  0  0
  2  3  1  0  0  0  0
  2  4  1  0  0  0  0
  2  5  1  0  0  0  0
  5  6  2  0  0  0  0
  5  7  1  0  0  0  0
  7  8  1  0  0  0  0
  7  9  1  0  0  0  0
  9 10  1  0  0  0  0
  9 11  1  0  0  0  0
  9 16  1  0  0  0  0
 11 12  1  0  0  0  0
 11 13  1  0  0  0  0
 11 14  1  0  0  0  0
 14 15  1  0  0  0  0
 16 17  2  0  0  0  0
 16 18  1  0  0  0  0
 18 19  1  0  0  0  0
 18 20  1  0  0  0  0
 20 21  1  0  0  0  0
 20 22  1  0  0  0  0
 20 23  1  0  0  0  0
M  END
$$$$

  -OEChem-01062216093D

 23 22  0     1  0  0  0  0  0999 V2000
   -2.8427   -3.5580    1.3117 H   0  0  0  0  0  0  0  0  0  0  0  0
   -2.7816   -2.4807    1.1332 C   0  0  0  0  0  0  0  0  0  0  0  0
   -2.9614   -1.9594    2.0764 H   0  0  0  0  0  0  0  0  0  0  0  0
   -3.5526   -2.1981    0.4124 H   0  0  0  0  0  0  0  0  0  0  0  0
   -1.4095   -2.1194    0.5970 C   0  0  0  0  0  0  0  0  0  0  0  0
   -0.6291   -3.0062    0.2974 O   0  0  0  0  0  0  0  0  0  0  0  0
   -1.1278   -0.8053    0.2738 N   0  0  0  0  0  0  0  0  0  0  0  0
   -1.8831   -0.1679    0.5035 H   0  0  0  0  0  0  0  0  0  0  0  0
    0.2346   -0.2204    0.3419 C   0  0  1  0  0  0  0  0  0  0  0  0
    0.1495    0.7902   -0.0661 H   0  0  0  0  0  0  0  0  0  0  0  0
    0.6898   -0.0548    1.8065 C   0  0  0  0  0  0  0  0  0  0  0  0
    1.6376    0.4931    1.8300 H   0  0  0  0  0  0  0  0  0  0  0  0
   -0.0460    0.5447    2.3514 H   0  0  0  0  0  0  0  0  0  0  0  0
    0.8588   -1.3092    2.4728 O   0  0  0  0  0  0  0  0  0  0  0  0
    1.4299   -1.2166    3.2543 H   0  0  0  0  0  0  0  0  0  0  0  0
    1.3207   -0.8766   -0.5433 C   0  0  0  0  0  0  0  0  0  0  0  0
    2.5041   -0.6090   -0.3609 O   0  0  0  0  0  0  0  0  0  0  0  0
    0.9572   -1.4771   -1.7345 N   0  0  0  0  0  0  0  0  0  0  0  0
    0.0272   -1.8902   -1.7042 H   0  0  0  0  0  0  0  0  0  0  0  0
    1.9370   -2.0987   -2.6160 C   0  0  0  0  0  0  0  0  0  0  0  0
    2.4577   -2.9099   -2.0963 H   0  0  0  0  0  0  0  0  0  0  0  0
    1.4402   -2.5128   -3.4985 H   0  0  0  0  0  0  0  0  0  0  0  0
    2.6756   -1.3630   -2.9515 H   0  0  0  0  0  0  0  0  0  0  0  0
  1  2  1  0  0  0  0
  2  3  1  0  0  0  0
  2  4  1  0  0  0  0
  2  5  1  0  0  0  0
  5  6  2  0  0  0  0
  5  7  1  0  0  0  0
  7  8  1  0  0  0  0
  7  9  1  0  0  0  0
  9 10  1  0  0  0  0
  9 11  1  0  0  0  0
  9 16  1  0  0  0  0
 11 12  1  0  0  0  0
 11 13  1  0  0  0  0
 11 14  1  0  0  0  0
 14 15  1  0  0  0  0
 16 17  2  0  0  0  0
 16 18  1  0  0  0  0
 18 19  1  0  0  0  0
 18 20  1  0  0  0  0
 20 21  1  0  0  0  0
 20 22  1  0  0  0  0
 20 23  1  0  0  0  0
M  END
$$$$

  -OEChem-01062216093D

 23 22  0     1  0  0  0  0  0999 V2000
   -2.7261   -3.6201    1.2778 H   0  0  0  0  0  0  0  0  0  0  0  0
   -2.7216   -2.5440    1.0817 C   0  0  0  0  0  0  0  0  0  0  0  0
   -3.0264   -2.0218    1.9919 H   0  0  0  0  0  0  0  0  0  0  0  0
   -3.4378   -2.3281    0.2855 H   0  0  0  0  0  0  0  0  0  0  0  0
   -1.3325   -2.0954    0.6697 C   0  0  0  0  0  0  0  0  0  0  0  0
   -0.4410   -2.9194    0.5548 O   0  0  0  0  0  0  0  0  0  0  0  0
   -1.1136   -0.7732    0.3254 N   0  0  0  0  0  0  0  0  0  0  0  0
   -1.9107   -0.1688    0.5001 H   0  0  0  0  0  0  0  0  0  0  0  0
    0.2196   -0.1294    0.3969 C   0  0  1  0  0  0  0  0  0  0  0  0
    0.1034    0.8731   -0.0236 H   0  0  0  0  0  0  0  0  0  0  0  0
    0.6658    0.0730    1.8604 C   0  0  0  0  0  0  0  0  0  0  0  0
    1.5875    0.6644    1.8800 H   0  0  0  0  0  0  0  0  0  0  0  0
   -0.0988    0.6421    2.3985 H   0  0  0  0  0  0  0  0  0  0  0  0
    0.8904   -1.1619    2.5433 O   0  0  0  0  0  0  0  0  0  0  0  0
    1.4760   -1.7365    2.0091 H   0  0  0  0  0  0  0  0  0  0  0  0
    1.3089   -0.7852   -0.4843 C   0  0  0  0  0  0  0  0  0  0  0  0
    2.4642   -0.8889   -0.0887 O   0  0  0  0  0  0  0  0  0  0  0  0
    1.0088   -1.1382   -1.7873 N   0  0  0  0  0  0  0  0  0  0  0  0
    0.0185   -1.2221   -1.9959 H   0  0  0  0  0  0  0  0  0  0  0  0
    1.9521   -1.8546   -2.6369 C   0  0  0  0  0  0  0  0  0  0  0  0
    2.2083   -2.8220   -2.1919 H   0  0  0  0  0  0  0  0  0  0  0  0
    1.5131   -2.0313   -3.6235 H   0  0  0  0  0  0  0  0  0  0  0  0
    2.8704   -1.2726   -2.7685 H   0  0  0  0  0  0  0  0  0  0  0  0
  1  2  1  0  0  0  0
  2  3  1  0  0  0  0
  2  4  1  0  0  0  0
  2  5  1  0  0  0  0
  5  6  2  0  0  0  0
  5  7  1  0  0  0  0
  7  8  1  0  0  0  0
  7  9  1  0  0  0  0
  9 10  1  0  0  0  0
  9 11  1  0  0  0  0
  9 16  1  0  0  0  0
 11 12  1  0  0  0  0
 11 13  1  0  0  0  0
 11 14  1  0  0  0  0
 14 15  1  0  0  0  0
 16 17  2  0  0  0  0
 16 18  1  0  0  0  0
 18 19  1  0  0  0  0
 18 20  1  0  0  0  0
 20 21  1  0  0  0  0
 20 22  1  0  0  0  0
 20 23  1  0  0  0  0
M  END
$$$$

  -OEChem-01062216093D

 23 22  0     1  0  0  0  0  0999 V2000
   -2.7175   -3.6254    1.3038 H   0  0  0  0  0  0  0  0  0  0  0  0
   -2.7201   -2.5558    1.0742 C   0  0  0  0  0  0  0  0  0  0  0  0
   -3.0506   -2.0091    1.9606 H   0  0  0  0  0  0  0  0  0  0  0  0
   -3.4208   -2.3732    0.2562 H   0  0  0  0  0  0  0  0  0  0  0  0
   -1.3267   -2.1051    0.6781 C   0  0  0  0  0  0  0  0  0  0  0  0
   -0.4326   -2.9280    0.5815 O   0  0  0  0  0  0  0  0  0  0  0  0
   -1.1082   -0.7843    0.3276 N   0  0  0  0  0  0  0  0  0  0  0  0
   -1.9093   -0.1822    0.4904 H   0  0  0  0  0  0  0  0  0  0  0  0
    0.2215   -0.1352    0.4003 C   0  0  1  0  0  0  0  0  0  0  0  0
    0.1050    0.8659   -0.0231 H   0  0  0  0  0  0  0  0  0  0  0  0
    0.6658    0.0759    1.8630 C   0  0  0  0  0  0  0  0  0  0  0  0
    1.5877    0.6667    1.8775 H   0  0  0  0  0  0  0  0  0  0  0  0
   -0.0982    0.6476    2.3991 H   0  0  0  0  0  0  0  0  0  0  0  0
    0.8941   -1.1557    2.5495 O   0  0  0  0  0  0  0  0  0  0  0  0
    1.4593   -1.7383    1.9992 H   0  0  0  0  0  0  0  0  0  0  0  0
    1.3117   -0.7974   -0.4752 C   0  0  0  0  0  0  0  0  0  0  0  0
    2.4029   -1.1043   -0.0078 O   0  0  0  0  0  0  0  0  0  0  0  0
    1.1240   -0.8744   -1.8434 N   0  0  0  0  0  0  0  0  0  0  0  0
    0.1684   -0.7628   -2.1673 H   0  0  0  0  0  0  0  0  0  0  0  0
    2.0828   -1.5248   -2.7283 C   0  0  0  0  0  0  0  0  0  0  0  0
    2.2031   -2.5782   -2.4537 H   0  0  0  0  0  0  0  0  0  0  0  0
    1.7367   -1.4732   -3.7649 H   0  0  0  0  0  0  0  0  0  0  0  0
    3.0583   -1.0310   -2.6670 H   0  0  0  0  0  0  0  0  0  0  0  0
  1  2  1  0  0  0  0
  2  3  1  0  0  0  0
  2  4  1  0  0  0  0
  2  5  1  0  0  0  0
  5  6  2  0  0  0  0
  5  7  1  0  0  0  0
  7  8  1  0  0  0  0
  7  9  1  0  0  0  0
  9 10  1  0  0  0  0
  9 11  1  0  0  0  0
  9 16  1  0  0  0  0
 11 12  1  0  0  0  0
 11 13  1  0  0  0  0
 11 14  1  0  0  0  0
 14 15  1  0  0  0  0
 16 17  2  0  0  0  0
 16 18  1  0  0  0  0
 18 19  1  0  0  0  0
 18 20  1  0  0  0  0
 20 21  1  0  0  0  0
 20 22  1  0  0  0  0
 20 23  1  0  0  0  0
M  END
$$$$

  -OEChem-01062216093D

 23 22  0     1  0  0  0  0  0999 V2000
   -2.7284   -3.6300    1.3137 H   0  0  0  0  0  0  0  0  0  0  0  0
   -2.7266   -2.5620    1.0768 C   0  0  0  0  0  0  0  0  0  0  0  0
   -3.0654   -2.0087    1.9560 H   0  0  0  0  0  0  0  0  0  0  0  0
   -3.4181   -2.3834    0.2500 H   0  0  0  0  0  0  0  0  0  0  0  0
   -1.3285   -2.1165    0.6921 C   0  0  0  0  0  0  0  0  0  0  0  0
   -0.4348   -2.9413    0.6161 O   0  0  0  0  0  0  0  0  0  0  0  0
   -1.1080   -0.7991    0.3310 N   0  0  0  0  0  0  0  0  0  0  0  0
   -1.9125   -0.1976    0.4778 H   0  0  0  0  0  0  0  0  0  0  0  0
    0.2185   -0.1435    0.3940 C   0  0  1  0  0  0  0  0  0  0  0  0
    0.0949    0.8565   -0.0297 H   0  0  0  0  0  0  0  0  0  0  0  0
    0.6670    0.0748    1.8544 C   0  0  0  0  0  0  0  0  0  0  0  0
    1.5883    0.6667    1.8606 H   0  0  0  0  0  0  0  0  0  0  0  0
   -0.0953    0.6466    2.3926 H   0  0  0  0  0  0  0  0  0  0  0  0
    0.9031   -1.1535    2.5434 O   0  0  0  0  0  0  0  0  0  0  0  0
    1.4295   -1.7517    1.9689 H   0  0  0  0  0  0  0  0  0  0  0  0
    1.3130   -0.8060   -0.4775 C   0  0  0  0  0  0  0  0  0  0  0  0
    2.3151   -1.3003    0.0274 O   0  0  0  0  0  0  0  0  0  0  0  0
    1.2850   -0.6255   -1.8492 N   0  0  0  0  0  0  0  0  0  0  0  0
    0.4023   -0.3219   -2.2478 H   0  0  0  0  0  0  0  0  0  0  0  0
    2.2830   -1.2098   -2.7377 C   0  0  0  0  0  0  0  0  0  0  0  0
    2.2876   -2.3010   -2.6434 H   0  0  0  0  0  0  0  0  0  0  0  0
    2.0614   -0.9521   -3.7778 H   0  0  0  0  0  0  0  0  0  0  0  0
    3.2816   -0.8311   -2.4954 H   0  0  0  0  0  0  0  0  0  0  0  0
  1  2  1  0  0  0  0
  2  3  1  0  0  0  0
  2  4  1  0  0  0  0
  2  5  1  0  0  0  0
  5  6  2  0  0  0  0
  5  7  1  0  0  0  0
  7  8  1  0  0  0  0
  7  9  1  0  0  0  0
  9 10  1  0  0  0  0
  9 11  1  0  0  0  0
  9 16  1  0  0  0  0
 11 12  1  0  0  0  0
 11 13  1  0  0  0  0
 11 14  1  0  0  0  0
 14 15  1  0  0  0  0
 16 17  2  0  0  0  0
 16 18  1  0  0  0  0
 18 19  1  0  0  0  0
 18 20  1  0  0  0  0
 20 21  1  0  0  0  0
 20 22  1  0  0  0  0
 20 23  1  0  0  0  0
M  END
$$$$

  -OEChem-01062216093D

 23 22  0     1  0  0  0  0  0999 V2000
   -2.7528   -3.6356    1.3292 H   0  0  0  0  0  0  0  0  0  0  0  0
   -2.7423   -2.5682    1.0903 C   0  0  0  0  0  0  0  0  0  0  0  0
   -3.0848   -2.0107    1.9654 H   0  0  0  0  0  0  0  0  0  0  0  0
   -3.4259   -2.3876    0.2574 H   0  0  0  0  0  0  0  0  0  0  0  0
   -1.3379   -2.1323    0.7165 C   0  0  0  0  0  0  0  0  0  0  0  0
   -0.4467   -2.9610    0.6741 O   0  0  0  0  0  0  0  0  0  0  0  0
   -1.1111   -0.8203    0.3396 N   0  0  0  0  0  0  0  0  0  0  0  0
   -1.9183   -0.2170    0.4603 H   0  0  0  0  0  0  0  0  0  0  0  0
    0.2142   -0.1597    0.3798 C   0  0  1  0  0  0  0  0  0  0  0  0
    0.0772    0.8372   -0.0471 H   0  0  0  0  0  0  0  0  0  0  0  0
    0.6787    0.0727    1.8326 C   0  0  0  0  0  0  0  0  0  0  0  0
    1.6000    0.6648    1.8209 H   0  0  0  0  0  0  0  0  0  0  0  0
   -0.0772    0.6489    2.3753 H   0  0  0  0  0  0  0  0  0  0  0  0
    0.9264   -1.1489    2.5294 O   0  0  0  0  0  0  0  0  0  0  0  0
    1.3955   -1.7736    1.9310 H   0  0  0  0  0  0  0  0  0  0  0  0
    1.3144   -0.8170   -0.4907 C   0  0  0  0  0  0  0  0  0  0  0  0
    2.2100   -1.4855    0.0136 O   0  0  0  0  0  0  0  0  0  0  0  0
    1.4724   -0.4081   -1.8043 N   0  0  0  0  0  0  0  0  0  0  0  0
    0.6986    0.0928   -2.2288 H   0  0  0  0  0  0  0  0  0  0  0  0
    2.5279   -0.9228   -2.6698 C   0  0  0  0  0  0  0  0  0  0  0  0
    2.4446   -2.0103   -2.7703 H   0  0  0  0  0  0  0  0  0  0  0  0
    2.4533   -0.4759   -3.6658 H   0  0  0  0  0  0  0  0  0  0  0  0
    3.5138   -0.6820   -2.2578 H   0  0  0  0  0  0  0  0  0  0  0  0
  1  2  1  0  0  0  0
  2  3  1  0  0  0  0
  2  4  1  0  0  0  0
  2  5  1  0  0  0  0
  5  6  2  0  0  0  0
  5  7  1  0  0  0  0
  7  8  1  0  0  0  0
  7  9  1  0  0  0  0
  9 10  1  0  0  0  0
  9 11  1  0  0  0  0
  9 16  1  0  0  0  0
 11 12  1  0  0  0  0
 11 13  1  0  0  0  0
 11 14  1  0  0  0  0
 14 15  1  0  0  0  0
 16 17  2  0  0  0  0
 16 18  1  0  0  0  0
 18 19  1  0  0  0  0
 18 20  1  0  0  0  0
 20 21  1  0  0  0  0
 20 22  1  0  0  0  0
 20 23  1  0  0  0  0
M  END
$$$$

  -OEChem-01062216093D

 23 22  0     1  0  0  0  0  0999 V2000
   -2.7957   -3.6432    1.3131 H   0  0  0  0  0  0  0  0  0  0  0  0
   -2.7669   -2.5748    1.0807 C   0  0  0  0  0  0  0  0  0  0  0  0
   -3.1435   -2.0191    1.9427 H   0  0  0  0  0  0  0  0  0  0  0  0
   -3.4122   -2.3854    0.2197 H   0  0  0  0  0  0  0  0  0  0  0  0
   -1.3443   -2.1476    0.7708 C   0  0  0  0  0  0  0  0  0  0  0  0
   -0.4536   -2.9754    0.8140 O   0  0  0  0  0  0  0  0  0  0  0  0
   -1.1030   -0.8445    0.3719 N   0  0  0  0  0  0  0  0  0  0  0  0
   -1.9162   -0.2400    0.4280 H   0  0  0  0  0  0  0  0  0  0  0  0
    0.2205   -0.1775    0.3722 C   0  0  1  0  0  0  0  0  0  0  0  0
    0.0615    0.8125   -0.0621 H   0  0  0  0  0  0  0  0  0  0  0  0
    0.7192    0.0771    1.8089 C   0  0  0  0  0  0  0  0  0  0  0  0
    1.6381    0.6711    1.7644 H   0  0  0  0  0  0  0  0  0  0  0  0
   -0.0240    0.6595    2.3625 H   0  0  0  0  0  0  0  0  0  0  0  0
    0.9896   -1.1325    2.5180 O   0  0  0  0  0  0  0  0  0  0  0  0
    1.3430   -1.8069    1.8925 H   0  0  0  0  0  0  0  0  0  0  0  0
    1.3207   -0.8282   -0.5043 C   0  0  0  0  0  0  0  0  0  0  0  0
    2.0907   -1.6653   -0.0489 O   0  0  0  0  0  0  0  0  0  0  0  0
    1.6666   -0.2317   -1.7058 N   0  0  0  0  0  0  0  0  0  0  0  0
    1.0287    0.4585   -2.0884 H   0  0  0  0  0  0  0  0  0  0  0  0
    2.7772   -0.6913   -2.5327 C   0  0  0  0  0  0  0  0  0  0  0  0
    2.6353   -1.7392   -2.8176 H   0  0  0  0  0  0  0  0  0  0  0  0
    2.8442   -0.0907   -3.4447 H   0  0  0  0  0  0  0  0  0  0  0  0
    3.7238   -0.5991   -1.9897 H   0  0  0  0  0  0  0  0  0  0  0  0
  1  2  1  0  0  0  0
  2  3  1  0  0  0  0
  2  4  1  0  0  0  0
  2  5  1  0  0  0  0
  5  6  2  0  0  0  0
  5  7  1  0  0  0  0
  7  8  1  0  0  0  0
  7  9  1  0  0  0  0
  9 10  1  0  0  0  0
  9 11  1  0  0  0  0
  9 16  1  0  0  0  0
 11 12  1  0  0  0  0
 11 13  1  0  0  0  0
 11 14  1  0  0  0  0
 14 15  1  0  0  0  0
 16 17  2  0  0  0  0
 16 18  1  0  0  0  0
 18 19  1  0  0  0  0
 18 20  1  0  0  0  0
 20 21  1  0  0  0  0
 20 22  1  0  0  0  0
 20 23  1  0  0  0  0
M  END
$$$$

  -OEChem-01062216093D

 23 22  0     1  0  0  0  0  0999 V2000
   -2.9424   -3.6544    1.0754 H   0  0  0  0  0  0  0  0  0  0  0  0
   -2.8307   -2.6042    0.7898 C   0  0  0  0  0  0  0  0  0  0  0  0
   -3.4058   -1.9891    1.4855 H   0  0  0  0  0  0  0  0  0  0  0  0
   -3.2254   -2.4725   -0.2203 H   0  0  0  0  0  0  0  0  0  0  0  0
   -1.3667   -2.2049    0.8313 C   0  0  0  0  0  0  0  0  0  0  0  0
   -0.5557   -3.0487    1.1538 O   0  0  0  0  0  0  0  0  0  0  0  0
   -1.0419   -0.8997    0.4986 N   0  0  0  0  0  0  0  0  0  0  0  0
   -1.8361   -0.3190    0.2549 H   0  0  0  0  0  0  0  0  0  0  0  0
    0.3002   -0.2681    0.4518 C   0  0  1  0  0  0  0  0  0  0  0  0
    0.1111    0.7272    0.0441 H   0  0  0  0  0  0  0  0  0  0  0  0
    0.9094    0.0022    1.8438 C   0  0  0  0  0  0  0  0  0  0  0  0
    1.8269    0.5870    1.7215 H   0  0  0  0  0  0  0  0  0  0  0  0
    0.2065    0.6082    2.4241 H   0  0  0  0  0  0  0  0  0  0  0  0
    1.2148   -1.1757    2.5872 O   0  0  0  0  0  0  0  0  0  0  0  0
    1.6356   -0.9753    3.4382 H   0  0  0  0  0  0  0  0  0  0  0  0
    1.3413   -0.8800   -0.5231 C   0  0  0  0  0  0  0  0  0  0  0  0
    1.7303   -2.0366   -0.4887 O   0  0  0  0  0  0  0  0  0  0  0  0
    1.8625   -0.0739   -1.5250 N   0  0  0  0  0  0  0  0  0  0  0  0
    1.5451    0.8879   -1.5754 H   0  0  0  0  0  0  0  0  0  0  0  0
    2.8432   -0.5406   -2.4993 C   0  0  0  0  0  0  0  0  0  0  0  0
    2.4416   -1.3801   -3.0767 H   0  0  0  0  0  0  0  0  0  0  0  0
    3.0993    0.2649   -3.1941 H   0  0  0  0  0  0  0  0  0  0  0  0
    3.7592   -0.8666   -1.9950 H   0  0  0  0  0  0  0  0  0  0  0  0
  1  2  1  0  0  0  0
  2  3  1  0  0  0  0
  2  4  1  0  0  0  0
  2  5  1  0  0  0  0
  5  6  2  0  0  0  0
  5  7  1  0  0  0  0
  7  8  1  0  0  0  0
  7  9  1  0  0  0  0
  9 10  1  0  0  0  0
  9 11  1  0  0  0  0
  9 16  1  0  0  0  0
 11 12  1  0  0  0  0
 11 13  1  0  0  0  0
 11 14  1  0  0  0  0
 14 15  1  0  0  0  0
 16 17  2  0  0  0  0
 16 18  1  0  0  0  0
 18 19  1  0  0  0  0
 18 20  1  0  0  0  0
 20 21  1  0  0  0  0
 20 22  1  0  0  0  0
 20 23  1  0  0  0  0
M  END
$$$$

  -OEChem-01062216093D

 23 22  0     1  0  0  0  0  0999 V2000
   -2.8024   -3.7211    0.8671 H   0  0  0  0  0  0  0  0  0  0  0  0
   -2.7174   -2.6658    0.5917 C   0  0  0  0  0  0  0  0  0  0  0  0
   -3.4870   -2.1001    1.1219 H   0  0  0  0  0  0  0  0  0  0  0  0
   -2.8771   -2.5728   -0.4851 H   0  0  0  0  0  0  0  0  0  0  0  0
   -1.3416   -2.1404    0.9589 C   0  0  0  0  0  0  0  0  0  0  0  0
   -0.6004   -2.8705    1.5880 O   0  0  0  0  0  0  0  0  0  0  0  0
   -1.0323   -0.8338    0.6134 N   0  0  0  0  0  0  0  0  0  0  0  0
   -1.7508   -0.3879    0.0547 H   0  0  0  0  0  0  0  0  0  0  0  0
    0.3168   -0.2143    0.5578 C   0  0  1  0  0  0  0  0  0  0  0  0
    0.1342    0.7789    0.1409 H   0  0  0  0  0  0  0  0  0  0  0  0
    1.0028    0.0604    1.9130 C   0  0  0  0  0  0  0  0  0  0  0  0
    1.9102    0.6499    1.7461 H   0  0  0  0  0  0  0  0  0  0  0  0
    0.3241    0.6665    2.5215 H   0  0  0  0  0  0  0  0  0  0  0  0
    1.3454   -1.1069    2.6537 O   0  0  0  0  0  0  0  0  0  0  0  0
    1.5865   -0.9022    3.5713 H   0  0  0  0  0  0  0  0  0  0  0  0
    1.3111   -0.8735   -0.4318 C   0  0  0  0  0  0  0  0  0  0  0  0
    1.2113   -2.0386   -0.7924 O   0  0  0  0  0  0  0  0  0  0  0  0
    2.0713   -0.0458   -1.2449 N   0  0  0  0  0  0  0  0  0  0  0  0
    2.1521    0.9292   -0.9769 H   0  0  0  0  0  0  0  0  0  0  0  0
    2.9176   -0.5439   -2.3245 C   0  0  0  0  0  0  0  0  0  0  0  0
    2.3093   -1.0273   -3.0963 H   0  0  0  0  0  0  0  0  0  0  0  0
    3.4681    0.2815   -2.7859 H   0  0  0  0  0  0  0  0  0  0  0  0
    3.6416   -1.2705   -1.9403 H   0  0  0  0  0  0  0  0  0  0  0  0
  1  2  1  0  0  0  0
  2  3  1  0  0  0  0
  2  4  1  0  0  0  0
  2  5  1  0  0  0  0
  5  6  2  0  0  0  0
  5  7  1  0  0  0  0
  7  8  1  0  0  0  0
  7  9  1  0  0  0  0
  9 10  1  0  0  0  0
  9 11  1  0  0  0  0
  9 16  1  0  0  0  0
 11 12  1  0  0  0  0
 11 13  1  0  0  0  0
 11 14  1  0  0  0  0
 14 15  1  0  0  0  0
 16 17  2  0  0  0  0
 16 18  1  0  0  0  0
 18 19  1  0  0  0  0
 18 20  1  0  0  0  0
 20 21  1  0  0  0  0
 20 22  1  0  0  0  0
 20 23  1  0  0  0  0
M  END
$$$$

  -OEChem-01062216093D

 23 22  0     1  0  0  0  0  0999 V2000
   -2.8131   -3.7072    0.9321 H   0  0  0  0  0  0  0  0  0  0  0  0
   -2.7189   -2.6655    0.6122 C   0  0  0  0  0  0  0  0  0  0  0  0
   -3.4808   -2.0709    1.1212 H   0  0  0  0  0  0  0  0  0  0  0  0
   -2.8827   -2.6150   -0.4668 H   0  0  0  0  0  0  0  0  0  0  0  0
   -1.3361   -2.1388    0.9495 C   0  0  0  0  0  0  0  0  0  0  0  0
   -0.5646   -2.8794    1.5290 O   0  0  0  0  0  0  0  0  0  0  0  0
   -1.0371   -0.8295    0.6072 N   0  0  0  0  0  0  0  0  0  0  0  0
   -1.7550   -0.3871    0.0448 H   0  0  0  0  0  0  0  0  0  0  0  0
    0.3108   -0.2085    0.5576 C   0  0  1  0  0  0  0  0  0  0  0  0
    0.1352    0.7847    0.1373 H   0  0  0  0  0  0  0  0  0  0  0  0
    0.9900    0.0593    1.9179 C   0  0  0  0  0  0  0  0  0  0  0  0
    1.8963    0.6529    1.7620 H   0  0  0  0  0  0  0  0  0  0  0  0
    0.3057    0.6592    2.5261 H   0  0  0  0  0  0  0  0  0  0  0  0
    1.3307   -1.1121    2.6533 O   0  0  0  0  0  0  0  0  0  0  0  0
    1.5533   -0.9136    3.5772 H   0  0  0  0  0  0  0  0  0  0  0  0
    1.3009   -0.8718   -0.4320 C   0  0  0  0  0  0  0  0  0  0  0  0
    1.0280   -1.9114   -1.0204 O   0  0  0  0  0  0  0  0  0  0  0  0
    2.2799   -0.0802   -1.0139 N   0  0  0  0  0  0  0  0  0  0  0  0
    2.5176    0.7854   -0.5414 H   0  0  0  0  0  0  0  0  0  0  0  0
    3.1638   -0.5579   -2.0721 C   0  0  0  0  0  0  0  0  0  0  0  0
    2.5883   -0.8090   -2.9693 H   0  0  0  0  0  0  0  0  0  0  0  0
    3.8915    0.2155   -2.3354 H   0  0  0  0  0  0  0  0  0  0  0  0
    3.7092   -1.4487   -1.7428 H   0  0  0  0  0  0  0  0  0  0  0  0
  1  2  1  0  0  0  0
  2  3  1  0  0  0  0
  2  4  1  0  0  0  0
  2  5  1  0  0  0  0
  5  6  2  0  0  0  0
  5  7  1  0  0  0  0
  7  8  1  0  0  0  0
  7  9  1  0  0  0  0
  9 10  1  0  0  0  0
  9 11  1  0  0  0  0
  9 16  1  0  0  0  0
 11 12  1  0  0  0  0
 11 13  1  0  0  0  0
 11 14  1  0  0  0  0
 14 15  1  0  0  0  0
 16 17  2  0  0  0  0
 16 18  1  0  0  0  0
 18 19  1  0  0  0  0
 18 20  1  0  0  0  0
 20 21  1  0  0  0  0
 20 22  1  0  0  0  0
 20 23  1  0  0  0  0
M  END
$$$$

  -OEChem-01062216093D

 23 22  0     1  0  0  0  0  0999 V2000
   -2.7955   -3.7127    0.9425 H   0  0  0  0  0  0  0  0  0  0  0  0
   -2.7177   -2.6652    0.6379 C   0  0  0  0  0  0  0  0  0  0  0  0
   -3.4565   -2.0818    1.1920 H   0  0  0  0  0  0  0  0  0  0  0  0
   -2.9307   -2.5952   -0.4314 H   0  0  0  0  0  0  0  0  0  0  0  0
   -1.3220   -2.1413    0.9217 C   0  0  0  0  0  0  0  0  0  0  0  0
   -0.5125   -2.8974    1.4258 O   0  0  0  0  0  0  0  0  0  0  0  0
   -1.0364   -0.8271    0.5888 N   0  0  0  0  0  0  0  0  0  0  0  0
   -1.7647   -0.3729    0.0493 H   0  0  0  0  0  0  0  0  0  0  0  0
    0.3069   -0.1972    0.5540 C   0  0  1  0  0  0  0  0  0  0  0  0
    0.1382    0.7963    0.1313 H   0  0  0  0  0  0  0  0  0  0  0  0
    0.9617    0.0681    1.9280 C   0  0  0  0  0  0  0  0  0  0  0  0
    1.8648    0.6717    1.7948 H   0  0  0  0  0  0  0  0  0  0  0  0
    0.2613    0.6584    2.5274 H   0  0  0  0  0  0  0  0  0  0  0  0
    1.2976   -1.1057    2.6627 O   0  0  0  0  0  0  0  0  0  0  0  0
    1.4975   -0.9107    3.5927 H   0  0  0  0  0  0  0  0  0  0  0  0
    1.2965   -0.8614   -0.4354 C   0  0  0  0  0  0  0  0  0  0  0  0
    0.9205   -1.7319   -1.2134 O   0  0  0  0  0  0  0  0  0  0  0  0
    2.4571   -0.1855   -0.7798 N   0  0  0  0  0  0  0  0  0  0  0  0
    2.7938    0.5079   -0.1204 H   0  0  0  0  0  0  0  0  0  0  0  0
    3.3763   -0.6638   -1.8070 C   0  0  0  0  0  0  0  0  0  0  0  0
    2.8803   -0.6932   -2.7829 H   0  0  0  0  0  0  0  0  0  0  0  0
    4.2410    0.0026   -1.8810 H   0  0  0  0  0  0  0  0  0  0  0  0
    3.7337   -1.6700   -1.5629 H   0  0  0  0  0  0  0  0  0  0  0  0
  1  2  1  0  0  0  0
  2  3  1  0  0  0  0
  2  4  1  0  0  0  0
  2  5  1  0  0  0  0
  5  6  2  0  0  0  0
  5  7  1  0  0  0  0
  7  8  1  0  0  0  0
  7  9  1  0  0  0  0
  9 10  1  0  0  0  0
  9 11  1  0  0  0  0
  9 16  1  0  0  0  0
 11 12  1  0  0  0  0
 11 13  1  0  0  0  0
 11 14  1  0  0  0  0
 14 15  1  0  0  0  0
 16 17  2  0  0  0  0
 16 18  1  0  0  0  0
 18 19  1  0  0  0  0
 18 20  1  0  0  0  0
 20 21  1  0  0  0  0
 20 22  1  0  0  0  0
 20 23  1  0  0  0  0
M  END
$$$$

  -OEChem-01062216093D

 23 22  0     1  0  0  0  0  0999 V2000
   -2.6723   -3.7047    0.9952 H   0  0  0  0  0  0  0  0  0  0  0  0
   -2.6034   -2.6690    0.6506 C   0  0  0  0  0  0  0  0  0  0  0  0
   -3.4065   -2.0902    1.1129 H   0  0  0  0  0  0  0  0  0  0  0  0
   -2.7273   -2.6524   -0.4351 H   0  0  0  0  0  0  0  0  0  0  0  0
   -1.2560   -2.0806    1.0242 C   0  0  0  0  0  0  0  0  0  0  0  0
   -0.4574   -2.7717    1.6340 O   0  0  0  0  0  0  0  0  0  0  0  0
   -0.9848   -0.7690    0.6799 N   0  0  0  0  0  0  0  0  0  0  0  0
   -1.6878   -0.3752    0.0610 H   0  0  0  0  0  0  0  0  0  0  0  0
    0.3415   -0.0967    0.6263 C   0  0  1  0  0  0  0  0  0  0  0  0
    0.1327    0.9664    0.4803 H   0  0  0  0  0  0  0  0  0  0  0  0
    1.2216   -0.1654    1.8927 C   0  0  0  0  0  0  0  0  0  0  0  0
    2.0880    0.4946    1.7859 H   0  0  0  0  0  0  0  0  0  0  0  0
    0.6338    0.2079    2.7373 H   0  0  0  0  0  0  0  0  0  0  0  0
    1.6736   -1.4783    2.2077 O   0  0  0  0  0  0  0  0  0  0  0  0
    0.9165   -2.1181    2.1167 H   0  0  0  0  0  0  0  0  0  0  0  0
    1.1524   -0.5333   -0.6181 C   0  0  0  0  0  0  0  0  0  0  0  0
    0.5911   -1.1278   -1.5331 O   0  0  0  0  0  0  0  0  0  0  0  0
    2.4183   -0.0238   -0.8525 N   0  0  0  0  0  0  0  0  0  0  0  0
    2.9126    0.3405   -0.0428 H   0  0  0  0  0  0  0  0  0  0  0  0
    3.2003   -0.3720   -2.0331 C   0  0  0  0  0  0  0  0  0  0  0  0
    2.6815   -0.0562   -2.9444 H   0  0  0  0  0  0  0  0  0  0  0  0
    4.1737    0.1267   -2.0019 H   0  0  0  0  0  0  0  0  0  0  0  0
    3.3659   -1.4536   -2.0782 H   0  0  0  0  0  0  0  0  0  0  0  0
  1  2  1  0  0  0  0
  2  3  1  0  0  0  0
  2  4  1  0  0  0  0
  2  5  1  0  0  0  0
  5  6  2  0  0  0  0
  5  7  1  0  0  0  0
  7  8  1  0  0  0  0
  7  9  1  0  0  0  0
  9 10  1  0  0  0  0
  9 11  1  0  0  0  0
  9 16  1  0  0  0  0
 11 12  1  0  0  0  0
 11 13  1  0  0  0  0
 11 14  1  0  0  0  0
 14 15  1  0  0  0  0
 16 17  2  0  0  0  0
 16 18  1  0  0  0  0
 18 19  1  0  0  0  0
 18 20  1  0  0  0  0
 20 21  1  0  0  0  0
 20 22  1  0  0  0  0
 20 23  1  0  0  0  0
M  END
$$$$

  -OEChem-01062216093D

 23 22  0     1  0  0  0  0  0999 V2000
   -2.6634   -3.7086    0.9977 H   0  0  0  0  0  0  0  0  0  0  0  0
   -2.6007   -2.6728    0.6520 C   0  0  0  0  0  0  0  0  0  0  0  0
   -3.3924   -2.0934    1.1328 H   0  0  0  0  0  0  0  0  0  0  0  0
   -2.7493   -2.6548   -0.4306 H   0  0  0  0  0  0  0  0  0  0  0  0
   -1.2448   -2.0867    0.9973 C   0  0  0  0  0  0  0  0  0  0  0  0
   -0.4267   -2.7837    1.5736 O   0  0  0  0  0  0  0  0  0  0  0  0
   -0.9807   -0.7719    0.6616 N   0  0  0  0  0  0  0  0  0  0  0  0
   -1.6880   -0.3690    0.0530 H   0  0  0  0  0  0  0  0  0  0  0  0
    0.3385   -0.0864    0.6291 C   0  0  1  0  0  0  0  0  0  0  0  0
    0.1253    0.9754    0.4787 H   0  0  0  0  0  0  0  0  0  0  0  0
    1.1981   -0.1456    1.9110 C   0  0  0  0  0  0  0  0  0  0  0  0
    2.0576    0.5261    1.8200 H   0  0  0  0  0  0  0  0  0  0  0  0
    0.5908    0.2209    2.7448 H   0  0  0  0  0  0  0  0  0  0  0  0
    1.6585   -1.4543    2.2343 O   0  0  0  0  0  0  0  0  0  0  0  0
    0.9140   -2.1047    2.1172 H   0  0  0  0  0  0  0  0  0  0  0  0
    1.1585   -0.5210   -0.6095 C   0  0  0  0  0  0  0  0  0  0  0  0
    0.5677   -0.9061   -1.6136 O   0  0  0  0  0  0  0  0  0  0  0  0
    2.5163   -0.2683   -0.7001 N   0  0  0  0  0  0  0  0  0  0  0  0
    2.9975   -0.1381    0.1867 H   0  0  0  0  0  0  0  0  0  0  0  0
    3.3135   -0.6674   -1.8540 C   0  0  0  0  0  0  0  0  0  0  0  0
    2.9397   -0.1878   -2.7649 H   0  0  0  0  0  0  0  0  0  0  0  0
    4.3568   -0.3689   -1.7129 H   0  0  0  0  0  0  0  0  0  0  0  0
    3.2776   -1.7538   -1.9872 H   0  0  0  0  0  0  0  0  0  0  0  0
  1  2  1  0  0  0  0
  2  3  1  0  0  0  0
  2  4  1  0  0  0  0
  2  5  1  0  0  0  0
  5  6  2  0  0  0  0
  5  7  1  0  0  0  0
  7  8  1  0  0  0  0
  7  9  1  0  0  0  0
  9 10  1  0  0  0  0
  9 11  1  0  0  0  0
  9 16  1  0  0  0  0
 11 12  1  0  0  0  0
 11 13  1  0  0  0  0
 11 14  1  0  0  0  0
 14 15  1  0  0  0  0
 16 17  2  0  0  0  0
 16 18  1  0  0  0  0
 18 19  1  0  0  0  0
 18 20  1  0  0  0  0
 20 21  1  0  0  0  0
 20 22  1  0  0  0  0
 20 23  1  0  0  0  0
M  END
$$$$

  -OEChem-01062216093D

 23 22  0     1  0  0  0  0  0999 V2000
   -2.6537   -3.7101    0.9855 H   0  0  0  0  0  0  0  0  0  0  0  0
   -2.5975   -2.6697    0.6530 C   0  0  0  0  0  0  0  0  0  0  0  0
   -3.3836   -2.0982    1.1522 H   0  0  0  0  0  0  0  0  0  0  0  0
   -2.7610   -2.6377   -0.4271 H   0  0  0  0  0  0  0  0  0  0  0  0
   -1.2379   -2.0854    0.9869 C   0  0  0  0  0  0  0  0  0  0  0  0
   -0.4098   -2.7860    1.5445 O   0  0  0  0  0  0  0  0  0  0  0  0
   -0.9742   -0.7711    0.6508 N   0  0  0  0  0  0  0  0  0  0  0  0
   -1.6849   -0.3599    0.0512 H   0  0  0  0  0  0  0  0  0  0  0  0
    0.3417   -0.0813    0.6299 C   0  0  1  0  0  0  0  0  0  0  0  0
    0.1288    0.9795    0.4717 H   0  0  0  0  0  0  0  0  0  0  0  0
    1.1877   -0.1296    1.9216 C   0  0  0  0  0  0  0  0  0  0  0  0
    2.0458    0.5444    1.8325 H   0  0  0  0  0  0  0  0  0  0  0  0
    0.5713    0.2408    2.7471 H   0  0  0  0  0  0  0  0  0  0  0  0
    1.6496   -1.4359    2.2572 O   0  0  0  0  0  0  0  0  0  0  0  0
    0.9099   -2.0900    2.1321 H   0  0  0  0  0  0  0  0  0  0  0  0
    1.1656   -0.5233   -0.6017 C   0  0  0  0  0  0  0  0  0  0  0  0
    0.5855   -0.7019   -1.6676 O   0  0  0  0  0  0  0  0  0  0  0  0
    2.5483   -0.5581   -0.5779 N   0  0  0  0  0  0  0  0  0  0  0  0
    2.9621   -0.6280    0.3511 H   0  0  0  0  0  0  0  0  0  0  0  0
    3.3435   -1.0012   -1.7163 C   0  0  0  0  0  0  0  0  0  0  0  0
    3.1400   -0.3778   -2.5934 H   0  0  0  0  0  0  0  0  0  0  0  0
    4.4099   -0.9260   -1.4828 H   0  0  0  0  0  0  0  0  0  0  0  0
    3.1133   -2.0430   -1.9629 H   0  0  0  0  0  0  0  0  0  0  0  0
  1  2  1  0  0  0  0
  2  3  1  0  0  0  0
  2  4  1  0  0  0  0
  2  5  1  0  0  0  0
  5  6  2  0  0  0  0
  5  7  1  0  0  0  0
  7  8  1  0  0  0  0
  7  9  1  0  0  0  0
  9 10  1  0  0  0  0
  9 11  1  0  0  0  0
  9 16  1  0  0  0  0
 11 12  1  0  0  0  0
 11 13  1  0  0  0  0
 11 14  1  0  0  0  0
 14 15  1  0  0  0  0
 16 17  2  0  0  0  0
 16 18  1  0  0  0  0
 18 19  1  0  0  0  0
 18 20  1  0  0  0  0
 20 21  1  0  0  0  0
 20 22  1  0  0  0  0
 20 23  1  0  0  0  0
M  END
$$$$

  -OEChem-01062216093D

 23 22  0     1  0  0  0  0  0999 V2000
   -2.6422   -3.7161    0.9758 H   0  0  0  0  0  0  0  0  0  0  0  0
   -2.5985   -2.6670    0.6696 C   0  0  0  0  0  0  0  0  0  0  0  0
   -3.3686   -2.1108    1.2095 H   0  0  0  0  0  0  0  0  0  0  0  0
   -2.7982   -2.6064   -0.4032 H   0  0  0  0  0  0  0  0  0  0  0  0
   -1.2296   -2.0883    0.9747 C   0  0  0  0  0  0  0  0  0  0  0  0
   -0.3887   -2.7942    1.5057 O   0  0  0  0  0  0  0  0  0  0  0  0
   -0.9666   -0.7744    0.6379 N   0  0  0  0  0  0  0  0  0  0  0  0
   -1.6898   -0.3486    0.0638 H   0  0  0  0  0  0  0  0  0  0  0  0
    0.3460   -0.0797    0.6213 C   0  0  1  0  0  0  0  0  0  0  0  0
    0.1307    0.9800    0.4575 H   0  0  0  0  0  0  0  0  0  0  0  0
    1.1809   -0.1209    1.9213 C   0  0  0  0  0  0  0  0  0  0  0  0
    2.0398    0.5524    1.8313 H   0  0  0  0  0  0  0  0  0  0  0  0
    0.5591    0.2544    2.7402 H   0  0  0  0  0  0  0  0  0  0  0  0
    1.6440   -1.4258    2.2677 O   0  0  0  0  0  0  0  0  0  0  0  0
    0.9090   -2.0834    2.1342 H   0  0  0  0  0  0  0  0  0  0  0  0
    1.1756   -0.5212   -0.6049 C   0  0  0  0  0  0  0  0  0  0  0  0
    0.6420   -0.5148   -1.7088 O   0  0  0  0  0  0  0  0  0  0  0  0
    2.5159   -0.8448   -0.5023 N   0  0  0  0  0  0  0  0  0  0  0  0
    2.8403   -1.0444    0.4453 H   0  0  0  0  0  0  0  0  0  0  0  0
    3.2959   -1.3533   -1.6228 C   0  0  0  0  0  0  0  0  0  0  0  0
    3.3056   -0.6291   -2.4439 H   0  0  0  0  0  0  0  0  0  0  0  0
    4.3294   -1.5330   -1.3115 H   0  0  0  0  0  0  0  0  0  0  0  0
    2.8734   -2.2950   -1.9880 H   0  0  0  0  0  0  0  0  0  0  0  0
  1  2  1  0  0  0  0
  2  3  1  0  0  0  0
  2  4  1  0  0  0  0
  2  5  1  0  0  0  0
  5  6  2  0  0  0  0
  5  7  1  0  0  0  0
  7  8  1  0  0  0  0
  7  9  1  0  0  0  0
  9 10  1  0  0  0  0
  9 11  1  0  0  0  0
  9 16  1  0  0  0  0
 11 12  1  0  0  0  0
 11 13  1  0  0  0  0
 11 14  1  0  0  0  0
 14 15  1  0  0  0  0
 16 17  2  0  0  0  0
 16 18  1  0  0  0  0
 18 19  1  0  0  0  0
 18 20  1  0  0  0  0
 20 21  1  0  0  0  0
 20 22  1  0  0  0  0
 20 23  1  0  0  0  0
M  END
$$$$

  -OEChem-01062216093D

 23 22  0     1  0  0  0  0  0999 V2000
   -2.7547   -3.7057    0.9427 H   0  0  0  0  0  0  0  0  0  0  0  0
   -2.7028   -2.6419    0.6942 C   0  0  0  0  0  0  0  0  0  0  0  0
   -3.2832   -2.0811    1.4304 H   0  0  0  0  0  0  0  0  0  0  0  0
   -3.1372   -2.4905   -0.2969 H   0  0  0  0  0  0  0  0  0  0  0  0
   -1.2597   -2.1732    0.7044 C   0  0  0  0  0  0  0  0  0  0  0  0
   -0.3743   -2.9986    0.8344 O   0  0  0  0  0  0  0  0  0  0  0  0
   -0.9901   -0.8424    0.4477 N   0  0  0  0  0  0  0  0  0  0  0  0
   -1.7901   -0.2766    0.1837 H   0  0  0  0  0  0  0  0  0  0  0  0
    0.3227   -0.1628    0.5290 C   0  0  1  0  0  0  0  0  0  0  0  0
    0.1100    0.8989    0.3765 H   0  0  0  0  0  0  0  0  0  0  0  0
    1.0640   -0.2056    1.8868 C   0  0  0  0  0  0  0  0  0  0  0  0
    1.9303    0.4630    1.8422 H   0  0  0  0  0  0  0  0  0  0  0  0
    0.3881    0.1879    2.6525 H   0  0  0  0  0  0  0  0  0  0  0  0
    1.5036   -1.5002    2.3024 O   0  0  0  0  0  0  0  0  0  0  0  0
    1.7538   -1.5071    3.2421 H   0  0  0  0  0  0  0  0  0  0  0  0
    1.2145   -0.5409   -0.6693 C   0  0  0  0  0  0  0  0  0  0  0  0
    0.8802   -0.1934   -1.7969 O   0  0  0  0  0  0  0  0  0  0  0  0
    2.4319   -1.1635   -0.4764 N   0  0  0  0  0  0  0  0  0  0  0  0
    2.5170   -1.6208    0.4336 H   0  0  0  0  0  0  0  0  0  0  0  0
    3.2349   -1.6702   -1.5807 C   0  0  0  0  0  0  0  0  0  0  0  0
    3.4861   -0.8624   -2.2759 H   0  0  0  0  0  0  0  0  0  0  0  0
    4.1671   -2.0996   -1.2019 H   0  0  0  0  0  0  0  0  0  0  0  0
    2.6885   -2.4475   -2.1252 H   0  0  0  0  0  0  0  0  0  0  0  0
  1  2  1  0  0  0  0
  2  3  1  0  0  0  0
  2  4  1  0  0  0  0
  2  5  1  0  0  0  0
  5  6  2  0  0  0  0
  5  7  1  0  0  0  0
  7  8  1  0  0  0  0
  7  9  1  0  0  0  0
  9 10  1  0  0  0  0
  9 11  1  0  0  0  0
  9 16  1  0  0  0  0
 11 12  1  0  0  0  0
 11 13  1  0  0  0  0
 11 14  1  0  0  0  0
 14 15  1  0  0  0  0
 16 17  2  0  0  0  0
 16 18  1  0  0  0  0
 18 19  1  0  0  0  0
 18 20  1  0  0  0  0
 20 21  1  0  0  0  0
 20 22  1  0  0  0  0
 20 23  1  0  0  0  0
M  END
$$$$

  -OEChem-01062216093D

 23 22  0     1  0  0  0  0  0999 V2000
   -2.7475   -3.6975    0.9701 H   0  0  0  0  0  0  0  0  0  0  0  0
   -2.7035   -2.6314    0.7298 C   0  0  0  0  0  0  0  0  0  0  0  0
   -3.2404   -2.0755    1.5018 H   0  0  0  0  0  0  0  0  0  0  0  0
   -3.1903   -2.4681   -0.2348 H   0  0  0  0  0  0  0  0  0  0  0  0
   -1.2593   -2.1704    0.6660 C   0  0  0  0  0  0  0  0  0  0  0  0
   -0.3700   -3.0011    0.7244 O   0  0  0  0  0  0  0  0  0  0  0  0
   -0.9917   -0.8399    0.4057 N   0  0  0  0  0  0  0  0  0  0  0  0
   -1.8030   -0.2515    0.2474 H   0  0  0  0  0  0  0  0  0  0  0  0
    0.3245   -0.1701    0.5041 C   0  0  1  0  0  0  0  0  0  0  0  0
    0.1204    0.8930    0.3464 H   0  0  0  0  0  0  0  0  0  0  0  0
    1.0320   -0.2173    1.8791 C   0  0  0  0  0  0  0  0  0  0  0  0
    1.9108    0.4353    1.8456 H   0  0  0  0  0  0  0  0  0  0  0  0
    0.3484    0.1924    2.6294 H   0  0  0  0  0  0  0  0  0  0  0  0
    1.4465   -1.5172    2.3079 O   0  0  0  0  0  0  0  0  0  0  0  0
    1.7663   -1.5033    3.2263 H   0  0  0  0  0  0  0  0  0  0  0  0
    1.2403   -0.5508   -0.6738 C   0  0  0  0  0  0  0  0  0  0  0  0
    1.0646   -0.0264   -1.7679 O   0  0  0  0  0  0  0  0  0  0  0  0
    2.2843   -1.4345   -0.4913 N   0  0  0  0  0  0  0  0  0  0  0  0
    2.2165   -1.9785    0.3722 H   0  0  0  0  0  0  0  0  0  0  0  0
    3.0662   -1.9732   -1.5946 C   0  0  0  0  0  0  0  0  0  0  0  0
    3.5300   -1.1637   -2.1677 H   0  0  0  0  0  0  0  0  0  0  0  0
    3.8597   -2.6218   -1.2117 H   0  0  0  0  0  0  0  0  0  0  0  0
    2.4287   -2.5601   -2.2639 H   0  0  0  0  0  0  0  0  0  0  0  0
  1  2  1  0  0  0  0
  2  3  1  0  0  0  0
  2  4  1  0  0  0  0
  2  5  1  0  0  0  0
  5  6  2  0  0  0  0
  5  7  1  0  0  0  0
  7  8  1  0  0  0  0
  7  9  1  0  0  0  0
  9 10  1  0  0  0  0
  9 11  1  0  0  0  0
  9 16  1  0  0  0  0
 11 12  1  0  0  0  0
 11 13  1  0  0  0  0
 11 14  1  0  0  0  0
 14 15  1  0  0  0  0
 16 17  2  0  0  0  0
 16 18  1  0  0  0  0
 18 19  1  0  0  0  0
 18 20  1  0  0  0  0
 20 21  1  0  0  0  0
 20 22  1  0  0  0  0
 20 23  1  0  0  0  0
M  END
$$$$

  -OEChem-01062216093D

 23 22  0     1  0  0  0  0  0999 V2000
   -2.7595   -3.6830    1.0080 H   0  0  0  0  0  0  0  0  0  0  0  0
   -2.7144   -2.6159    0.7719 C   0  0  0  0  0  0  0  0  0  0  0  0
   -3.2106   -2.0593    1.5702 H   0  0  0  0  0  0  0  0  0  0  0  0
   -3.2414   -2.4414   -0.1693 H   0  0  0  0  0  0  0  0  0  0  0  0
   -1.2695   -2.1702    0.6469 C   0  0  0  0  0  0  0  0  0  0  0  0
   -0.3862   -3.0102    0.6667 O   0  0  0  0  0  0  0  0  0  0  0  0
   -0.9972   -0.8430    0.3730 N   0  0  0  0  0  0  0  0  0  0  0  0
   -1.8090   -0.2411    0.2807 H   0  0  0  0  0  0  0  0  0  0  0  0
    0.3235   -0.1831    0.4792 C   0  0  1  0  0  0  0  0  0  0  0  0
    0.1276    0.8806    0.3137 H   0  0  0  0  0  0  0  0  0  0  0  0
    1.0074   -0.2295    1.8644 C   0  0  0  0  0  0  0  0  0  0  0  0
    1.8952    0.4109    1.8382 H   0  0  0  0  0  0  0  0  0  0  0  0
    0.3191    0.1929    2.6032 H   0  0  0  0  0  0  0  0  0  0  0  0
    1.3987   -1.5326    2.3036 O   0  0  0  0  0  0  0  0  0  0  0  0
    1.7744   -1.5069    3.2001 H   0  0  0  0  0  0  0  0  0  0  0  0
    1.2610   -0.5746   -0.6772 C   0  0  0  0  0  0  0  0  0  0  0  0
    1.2819    0.1049   -1.6972 O   0  0  0  0  0  0  0  0  0  0  0  0
    2.0896   -1.6708   -0.5591 N   0  0  0  0  0  0  0  0  0  0  0  0
    1.8530   -2.2867    0.2239 H   0  0  0  0  0  0  0  0  0  0  0  0
    2.8567   -2.2128   -1.6706 C   0  0  0  0  0  0  0  0  0  0  0  0
    3.5294   -1.4520   -2.0800 H   0  0  0  0  0  0  0  0  0  0  0  0
    3.4607   -3.0603   -1.3327 H   0  0  0  0  0  0  0  0  0  0  0  0
    2.1865   -2.5569   -2.4650 H   0  0  0  0  0  0  0  0  0  0  0  0
  1  2  1  0  0  0  0
  2  3  1  0  0  0  0
  2  4  1  0  0  0  0
  2  5  1  0  0  0  0
  5  6  2  0  0  0  0
  5  7  1  0  0  0  0
  7  8  1  0  0  0  0
  7  9  1  0  0  0  0
  9 10  1  0  0  0  0
  9 11  1  0  0  0  0
  9 16  1  0  0  0  0
 11 12  1  0  0  0  0
 11 13  1  0  0  0  0
 11 14  1  0  0  0  0
 14 15  1  0  0  0  0
 16 17  2  0  0  0  0
 16 18  1  0  0  0  0
 18 19  1  0  0  0  0
 18 20  1  0  0  0  0
 20 21  1  0  0  0  0
 20 22  1  0  0  0  0
 20 23  1  0  0  0  0
M  END
$$$$

  -OEChem-01062216093D

 23 22  0     1  0  0  0  0  0999 V2000
   -2.8180   -3.6511    1.0786 H   0  0  0  0  0  0  0  0  0  0  0  0
   -2.7568   -2.5880    0.8291 C   0  0  0  0  0  0  0  0  0  0  0  0
   -3.2132   -2.0118    1.6372 H   0  0  0  0  0  0  0  0  0  0  0  0
   -3.3111   -2.4111   -0.0958 H   0  0  0  0  0  0  0  0  0  0  0  0
   -1.3072   -2.1765    0.6523 C   0  0  0  0  0  0  0  0  0  0  0  0
   -0.4438   -3.0377    0.6508 O   0  0  0  0  0  0  0  0  0  0  0  0
   -1.0164   -0.8569    0.3584 N   0  0  0  0  0  0  0  0  0  0  0  0
   -1.8218   -0.2419    0.3041 H   0  0  0  0  0  0  0  0  0  0  0  0
    0.3121   -0.2071    0.4525 C   0  0  1  0  0  0  0  0  0  0  0  0
    0.1216    0.8563    0.2789 H   0  0  0  0  0  0  0  0  0  0  0  0
    0.9940   -0.2499    1.8367 C   0  0  0  0  0  0  0  0  0  0  0  0
    1.8910    0.3772    1.8047 H   0  0  0  0  0  0  0  0  0  0  0  0
    0.3132    0.1860    2.5745 H   0  0  0  0  0  0  0  0  0  0  0  0
    1.3675   -1.5568    2.2774 O   0  0  0  0  0  0  0  0  0  0  0  0
    1.7934   -1.5293    3.1509 H   0  0  0  0  0  0  0  0  0  0  0  0
    1.2637   -0.6095   -0.6893 C   0  0  0  0  0  0  0  0  0  0  0  0
    1.5002    0.1864   -1.5911 O   0  0  0  0  0  0  0  0  0  0  0  0
    1.8596   -1.8531   -0.6940 N   0  0  0  0  0  0  0  0  0  0  0  0
    1.4776   -2.5094   -0.0052 H   0  0  0  0  0  0  0  0  0  0  0  0
    2.6488   -2.3676   -1.8028 C   0  0  0  0  0  0  0  0  0  0  0  0
    3.4894   -1.6999   -2.0181 H   0  0  0  0  0  0  0  0  0  0  0  0
    3.0490   -3.3547   -1.5522 H   0  0  0  0  0  0  0  0  0  0  0  0
    2.0307   -2.4598   -2.7015 H   0  0  0  0  0  0  0  0  0  0  0  0
  1  2  1  0  0  0  0
  2  3  1  0  0  0  0
  2  4  1  0  0  0  0
  2  5  1  0  0  0  0
  5  6  2  0  0  0  0
  5  7  1  0  0  0  0
  7  8  1  0  0  0  0
  7  9  1  0  0  0  0
  9 10  1  0  0  0  0
  9 11  1  0  0  0  0
  9 16  1  0  0  0  0
 11 12  1  0  0  0  0
 11 13  1  0  0  0  0
 11 14  1  0  0  0  0
 14 15  1  0  0  0  0
 16 17  2  0  0  0  0
 16 18  1  0  0  0  0
 18 19  1  0  0  0  0
 18 20  1  0  0  0  0
 20 21  1  0  0  0  0
 20 22  1  0  0  0  0
 20 23  1  0  0  0  0
M  END
$$$$

  -OEChem-01062216093D

 23 22  0     1  0  0  0  0  0999 V2000
   -2.9002   -3.6088    1.1767 H   0  0  0  0  0  0  0  0  0  0  0  0
   -2.8187   -2.5501    0.9140 C   0  0  0  0  0  0  0  0  0  0  0  0
   -3.2220   -1.9537    1.7358 H   0  0  0  0  0  0  0  0  0  0  0  0
   -3.4075   -2.3646    0.0124 H   0  0  0  0  0  0  0  0  0  0  0  0
   -1.3669   -2.1828    0.6700 C   0  0  0  0  0  0  0  0  0  0  0  0
   -0.5315   -3.0703    0.6382 O   0  0  0  0  0  0  0  0  0  0  0  0
   -1.0544   -0.8727    0.3547 N   0  0  0  0  0  0  0  0  0  0  0  0
   -1.8509   -0.2441    0.3356 H   0  0  0  0  0  0  0  0  0  0  0  0
    0.2837   -0.2342    0.4165 C   0  0  1  0  0  0  0  0  0  0  0  0
    0.0961    0.8291    0.2396 H   0  0  0  0  0  0  0  0  0  0  0  0
    0.9866   -0.2807    1.7882 C   0  0  0  0  0  0  0  0  0  0  0  0
    1.8909    0.3353    1.7416 H   0  0  0  0  0  0  0  0  0  0  0  0
    0.3238    0.1629    2.5379 H   0  0  0  0  0  0  0  0  0  0  0  0
    1.3481   -1.5945    2.2165 O   0  0  0  0  0  0  0  0  0  0  0  0
    1.8028   -1.5765    3.0754 H   0  0  0  0  0  0  0  0  0  0  0  0
    1.2373   -0.6417   -0.7229 C   0  0  0  0  0  0  0  0  0  0  0  0
    1.6896    0.2205   -1.4674 O   0  0  0  0  0  0  0  0  0  0  0  0
    1.6012   -1.9591   -0.9050 N   0  0  0  0  0  0  0  0  0  0  0  0
    1.1443   -2.6337   -0.2822 H   0  0  0  0  0  0  0  0  0  0  0  0
    2.4626   -2.4343   -1.9766 C   0  0  0  0  0  0  0  0  0  0  0  0
    3.4297   -1.9217   -1.9462 H   0  0  0  0  0  0  0  0  0  0  0  0
    2.6382   -3.5090   -1.8691 H   0  0  0  0  0  0  0  0  0  0  0  0
    1.9963   -2.2535   -2.9505 H   0  0  0  0  0  0  0  0  0  0  0  0
  1  2  1  0  0  0  0
  2  3  1  0  0  0  0
  2  4  1  0  0  0  0
  2  5  1  0  0  0  0
  5  6  2  0  0  0  0
  5  7  1  0  0  0  0
  7  8  1  0  0  0  0
  7  9  1  0  0  0  0
  9 10  1  0  0  0  0
  9 11  1  0  0  0  0
  9 16  1  0  0  0  0
 11 12  1  0  0  0  0
 11 13  1  0  0  0  0
 11 14  1  0  0  0  0
 14 15  1  0  0  0  0
 16 17  2  0  0  0  0
 16 18  1  0  0  0  0
 18 19  1  0  0  0  0
 18 20  1  0  0  0  0
 20 21  1  0  0  0  0
 20 22  1  0  0  0  0
 20 23  1  0  0  0  0
M  END
$$$$

  -OEChem-01062216093D

 23 22  0     1  0  0  0  0  0999 V2000
   -2.9519   -3.5914    1.2373 H   0  0  0  0  0  0  0  0  0  0  0  0
   -2.8624   -2.5293    0.9916 C   0  0  0  0  0  0  0  0  0  0  0  0
   -3.2187   -1.9423    1.8414 H   0  0  0  0  0  0  0  0  0  0  0  0
   -3.4865   -2.3167    0.1203 H   0  0  0  0  0  0  0  0  0  0  0  0
   -1.4160   -2.1826    0.6915 C   0  0  0  0  0  0  0  0  0  0  0  0
   -0.5985   -3.0840    0.6188 O   0  0  0  0  0  0  0  0  0  0  0  0
   -1.0977   -0.8768    0.3630 N   0  0  0  0  0  0  0  0  0  0  0  0
   -1.8881   -0.2403    0.3791 H   0  0  0  0  0  0  0  0  0  0  0  0
    0.2466   -0.2449    0.3836 C   0  0  1  0  0  0  0  0  0  0  0  0
    0.0597    0.8196    0.2137 H   0  0  0  0  0  0  0  0  0  0  0  0
    0.9881   -0.3029    1.7332 C   0  0  0  0  0  0  0  0  0  0  0  0
    1.8958    0.3061    1.6647 H   0  0  0  0  0  0  0  0  0  0  0  0
    0.3509    0.1405    2.5049 H   0  0  0  0  0  0  0  0  0  0  0  0
    1.3502   -1.6236    2.1373 O   0  0  0  0  0  0  0  0  0  0  0  0
    1.8401   -1.6171    2.9767 H   0  0  0  0  0  0  0  0  0  0  0  0
    1.1815   -0.6493   -0.7733 C   0  0  0  0  0  0  0  0  0  0  0  0
    1.8245    0.2194   -1.3515 O   0  0  0  0  0  0  0  0  0  0  0  0
    1.3131   -1.9656   -1.1643 N   0  0  0  0  0  0  0  0  0  0  0  0
    0.8354   -2.6500   -0.5689 H   0  0  0  0  0  0  0  0  0  0  0  0
    2.2623   -2.4284   -2.1654 C   0  0  0  0  0  0  0  0  0  0  0  0
    3.2883   -2.2211   -1.8445 H   0  0  0  0  0  0  0  0  0  0  0  0
    2.1554   -3.5072   -2.3134 H   0  0  0  0  0  0  0  0  0  0  0  0
    2.0831   -1.9291   -3.1232 H   0  0  0  0  0  0  0  0  0  0  0  0
  1  2  1  0  0  0  0
  2  3  1  0  0  0  0
  2  4  1  0  0  0  0
  2  5  1  0  0  0  0
  5  6  2  0  0  0  0
  5  7  1  0  0  0  0
  7  8  1  0  0  0  0
  7  9  1  0  0  0  0
  9 10  1  0  0  0  0
  9 11  1  0  0  0  0
  9 16  1  0  0  0  0
 11 12  1  0  0  0  0
 11 13  1  0  0  0  0
 11 14  1  0  0  0  0
 14 15  1  0  0  0  0
 16 17  2  0  0  0  0
 16 18  1  0  0  0  0
 18 19  1  0  0  0  0
 18 20  1  0  0  0  0
 20 21  1  0  0  0  0
 20 22  1  0  0  0  0
 20 23  1  0  0  0  0
M  END
$$$$

  -OEChem-01062216093D

 23 22  0     1  0  0  0  0  0999 V2000
   -2.9482   -3.5762    1.3070 H   0  0  0  0  0  0  0  0  0  0  0  0
   -2.8649   -2.5130    1.0637 C   0  0  0  0  0  0  0  0  0  0  0  0
   -3.1607   -1.9302    1.9392 H   0  0  0  0  0  0  0  0  0  0  0  0
   -3.5417   -2.2872    0.2362 H   0  0  0  0  0  0  0  0  0  0  0  0
   -1.4373   -2.1771    0.6740 C   0  0  0  0  0  0  0  0  0  0  0  0
   -0.6403   -3.0852    0.5115 O   0  0  0  0  0  0  0  0  0  0  0  0
   -1.1235   -0.8714    0.3429 N   0  0  0  0  0  0  0  0  0  0  0  0
   -1.9053   -0.2297    0.4264 H   0  0  0  0  0  0  0  0  0  0  0  0
    0.2250   -0.2464    0.3580 C   0  0  1  0  0  0  0  0  0  0  0  0
    0.0435    0.8192    0.1902 H   0  0  0  0  0  0  0  0  0  0  0  0
    0.9601   -0.3196    1.7103 C   0  0  0  0  0  0  0  0  0  0  0  0
    1.8743    0.2808    1.6503 H   0  0  0  0  0  0  0  0  0  0  0  0
    0.3250    0.1231    2.4840 H   0  0  0  0  0  0  0  0  0  0  0  0
    1.3061   -1.6487    2.1014 O   0  0  0  0  0  0  0  0  0  0  0  0
    1.8272   -1.6535    2.9219 H   0  0  0  0  0  0  0  0  0  0  0  0
    1.1683   -0.6434   -0.7958 C   0  0  0  0  0  0  0  0  0  0  0  0
    1.9746    0.1814   -1.2112 O   0  0  0  0  0  0  0  0  0  0  0  0
    1.0930   -1.8820   -1.3997 N   0  0  0  0  0  0  0  0  0  0  0  0
    0.5470   -2.5759   -0.8800 H   0  0  0  0  0  0  0  0  0  0  0  0
    2.0492   -2.3473   -2.3935 C   0  0  0  0  0  0  0  0  0  0  0  0
    3.0524   -2.4089   -1.9594 H   0  0  0  0  0  0  0  0  0  0  0  0
    1.7637   -3.3403   -2.7534 H   0  0  0  0  0  0  0  0  0  0  0  0
    2.0758   -1.6657   -3.2499 H   0  0  0  0  0  0  0  0  0  0  0  0
  1  2  1  0  0  0  0
  2  3  1  0  0  0  0
  2  4  1  0  0  0  0
  2  5  1  0  0  0  0
  5  6  2  0  0  0  0
  5  7  1  0  0  0  0
  7  8  1  0  0  0  0
  7  9  1  0  0  0  0
  9 10  1  0  0  0  0
  9 11  1  0  0  0  0
  9 16  1  0  0  0  0
 11 12  1  0  0  0  0
 11 13  1  0  0  0  0
 11 14  1  0  0  0  0
 14 15  1  0  0  0  0
 16 17  2  0  0  0  0
 16 18  1  0  0  0  0
 18 19  1  0  0  0  0
 18 20  1  0  0  0  0
 20 21  1  0  0  0  0
 20 22  1  0  0  0  0
 20 23  1  0  0  0  0
M  END
$$$$

  -OEChem-01062216093D

 23 22  0     1  0  0  0  0  0999 V2000
   -2.8947   -3.5738    1.3593 H   0  0  0  0  0  0  0  0  0  0  0  0
   -2.8307   -2.5071    1.1265 C   0  0  0  0  0  0  0  0  0  0  0  0
   -3.0572   -1.9376    2.0309 H   0  0  0  0  0  0  0  0  0  0  0  0
   -3.5690   -2.2692    0.3570 H   0  0  0  0  0  0  0  0  0  0  0  0
   -1.4376   -2.1649    0.6334 C   0  0  0  0  0  0  0  0  0  0  0  0
   -0.6668   -3.0672    0.3536 O   0  0  0  0  0  0  0  0  0  0  0  0
   -1.1382   -0.8553    0.3077 N   0  0  0  0  0  0  0  0  0  0  0  0
   -1.9070   -0.2137    0.4724 H   0  0  0  0  0  0  0  0  0  0  0  0
    0.2155   -0.2432    0.3407 C   0  0  1  0  0  0  0  0  0  0  0  0
    0.0480    0.8245    0.1735 H   0  0  0  0  0  0  0  0  0  0  0  0
    0.9170   -0.3321    1.7105 C   0  0  0  0  0  0  0  0  0  0  0  0
    1.8409    0.2551    1.6760 H   0  0  0  0  0  0  0  0  0  0  0  0
    0.2716    0.1163    2.4722 H   0  0  0  0  0  0  0  0  0  0  0  0
    1.2342   -1.6693    2.0999 O   0  0  0  0  0  0  0  0  0  0  0  0
    1.7750   -1.6845    2.9075 H   0  0  0  0  0  0  0  0  0  0  0  0
    1.1732   -0.6390   -0.8031 C   0  0  0  0  0  0  0  0  0  0  0  0
    2.1186    0.0968   -1.0643 O   0  0  0  0  0  0  0  0  0  0  0  0
    0.9176   -1.7264   -1.6151 N   0  0  0  0  0  0  0  0  0  0  0  0
    0.2820   -2.4120   -1.1980 H   0  0  0  0  0  0  0  0  0  0  0  0
    1.8475   -2.1849   -2.6374 C   0  0  0  0  0  0  0  0  0  0  0  0
    2.7948   -2.4922   -2.1823 H   0  0  0  0  0  0  0  0  0  0  0  0
    1.4244   -3.0399   -3.1733 H   0  0  0  0  0  0  0  0  0  0  0  0
    2.0454   -1.3885   -3.3626 H   0  0  0  0  0  0  0  0  0  0  0  0
  1  2  1  0  0  0  0
  2  3  1  0  0  0  0
  2  4  1  0  0  0  0
  2  5  1  0  0  0  0
  5  6  2  0  0  0  0
  5  7  1  0  0  0  0
  7  8  1  0  0  0  0
  7  9  1  0  0  0  0
  9 10  1  0  0  0  0
  9 11  1  0  0  0  0
  9 16  1  0  0  0  0
 11 12  1  0  0  0  0
 11 13  1  0  0  0  0
 11 14  1  0  0  0  0
 14 15  1  0  0  0  0
 16 17  2  0  0  0  0
 16 18  1  0  0  0  0
 18 19  1  0  0  0  0
 18 20  1  0  0  0  0
 20 21  1  0  0  0  0
 20 22  1  0  0  0  0
 20 23  1  0  0  0  0
M  END
$$$$

  -OEChem-01062216093D

 23 22  0     1  0  0  0  0  0999 V2000
   -2.8274   -3.5839    1.3782 H   0  0  0  0  0  0  0  0  0  0  0  0
   -2.7814   -2.5108    1.1720 C   0  0  0  0  0  0  0  0  0  0  0  0
   -2.9413   -1.9684    2.1067 H   0  0  0  0  0  0  0  0  0  0  0  0
   -3.5744   -2.2524    0.4662 H   0  0  0  0  0  0  0  0  0  0  0  0
   -1.4281   -2.1511    0.5892 C   0  0  0  0  0  0  0  0  0  0  0  0
   -0.6842   -3.0369    0.2039 O   0  0  0  0  0  0  0  0  0  0  0  0
   -1.1478   -0.8369    0.2702 N   0  0  0  0  0  0  0  0  0  0  0  0
   -1.9066   -0.2028    0.4982 H   0  0  0  0  0  0  0  0  0  0  0  0
    0.2087   -0.2343    0.3293 C   0  0  1  0  0  0  0  0  0  0  0  0
    0.0557    0.8357    0.1639 H   0  0  0  0  0  0  0  0  0  0  0  0
    0.8775   -0.3411    1.7151 C   0  0  0  0  0  0  0  0  0  0  0  0
    1.8074    0.2375    1.7083 H   0  0  0  0  0  0  0  0  0  0  0  0
    0.2188    0.1060    2.4662 H   0  0  0  0  0  0  0  0  0  0  0  0
    1.1729   -1.6856    2.0980 O   0  0  0  0  0  0  0  0  0  0  0  0
    1.7452   -1.7112    2.8835 H   0  0  0  0  0  0  0  0  0  0  0  0
    1.1768   -0.6354   -0.8041 C   0  0  0  0  0  0  0  0  0  0  0  0
    2.2364   -0.0302   -0.9258 O   0  0  0  0  0  0  0  0  0  0  0  0
    0.7801   -1.5077   -1.7990 N   0  0  0  0  0  0  0  0  0  0  0  0
    0.0502   -2.1558   -1.4952 H   0  0  0  0  0  0  0  0  0  0  0  0
    1.6816   -1.9487   -2.8545 C   0  0  0  0  0  0  0  0  0  0  0  0
    2.5348   -2.4869   -2.4286 H   0  0  0  0  0  0  0  0  0  0  0  0
    1.1560   -2.6173   -3.5428 H   0  0  0  0  0  0  0  0  0  0  0  0
    2.0539   -1.0918   -3.4256 H   0  0  0  0  0  0  0  0  0  0  0  0
  1  2  1  0  0  0  0
  2  3  1  0  0  0  0
  2  4  1  0  0  0  0
  2  5  1  0  0  0  0
  5  6  2  0  0  0  0
  5  7  1  0  0  0  0
  7  8  1  0  0  0  0
  7  9  1  0  0  0  0
  9 10  1  0  0  0  0
  9 11  1  0  0  0  0
  9 16  1  0  0  0  0
 11 12  1  0  0  0  0
 11 13  1  0  0  0  0
 11 14  1  0  0  0  0
 14 15  1  0  0  0  0
 16 17  2  0  0  0  0
 16 18  1  0  0  0  0
 18 19  1  0  0  0  0
 18 20  1  0  0  0  0
 20 21  1  0  0  0  0
 20 22  1  0  0  0  0
 20 23  1  0  0  0  0
M  END
$$$$

  -OEChem-01062216093D

 23 22  0     1  0  0  0  0  0999 V2000
   -2.7708   -3.6059    1.3532 H   0  0  0  0  0  0  0  0  0  0  0  0
   -2.7331   -2.5252    1.1891 C   0  0  0  0  0  0  0  0  0  0  0  0
   -2.8430   -2.0215    2.1523 H   0  0  0  0  0  0  0  0  0  0  0  0
   -3.5605   -2.2381    0.5359 H   0  0  0  0  0  0  0  0  0  0  0  0
   -1.4102   -2.1434    0.5529 C   0  0  0  0  0  0  0  0  0  0  0  0
   -0.6816   -3.0109    0.1028 O   0  0  0  0  0  0  0  0  0  0  0  0
   -1.1478   -0.8239    0.2438 N   0  0  0  0  0  0  0  0  0  0  0  0
   -1.9000   -0.1999    0.5170 H   0  0  0  0  0  0  0  0  0  0  0  0
    0.2098   -0.2286    0.3272 C   0  0  1  0  0  0  0  0  0  0  0  0
    0.0682    0.8428    0.1619 H   0  0  0  0  0  0  0  0  0  0  0  0
    0.8495   -0.3429    1.7275 C   0  0  0  0  0  0  0  0  0  0  0  0
    1.7831    0.2291    1.7419 H   0  0  0  0  0  0  0  0  0  0  0  0
    0.1802    0.1072    2.4673 H   0  0  0  0  0  0  0  0  0  0  0  0
    1.1278   -1.6906    2.1127 O   0  0  0  0  0  0  0  0  0  0  0  0
    1.7380   -1.7220    2.8690 H   0  0  0  0  0  0  0  0  0  0  0  0
    1.1803   -0.6349   -0.8030 C   0  0  0  0  0  0  0  0  0  0  0  0
    2.3283   -0.2033   -0.8003 O   0  0  0  0  0  0  0  0  0  0  0  0
    0.6934   -1.2365   -1.9480 N   0  0  0  0  0  0  0  0  0  0  0  0
   -0.1493   -1.7857   -1.7810 H   0  0  0  0  0  0  0  0  0  0  0  0
    1.5671   -1.6564   -3.0355 C   0  0  0  0  0  0  0  0  0  0  0  0
    2.2794   -2.4103   -2.6842 H   0  0  0  0  0  0  0  0  0  0  0  0
    0.9751   -2.0881   -3.8480 H   0  0  0  0  0  0  0  0  0  0  0  0
    2.1247   -0.8021   -3.4336 H   0  0  0  0  0  0  0  0  0  0  0  0
  1  2  1  0  0  0  0
  2  3  1  0  0  0  0
  2  4  1  0  0  0  0
  2  5  1  0  0  0  0
  5  6  2  0  0  0  0
  5  7  1  0  0  0  0
  7  8  1  0  0  0  0
  7  9  1  0  0  0  0
  9 10  1  0  0  0  0
  9 11  1  0  0  0  0
  9 16  1  0  0  0  0
 11 12  1  0  0  0  0
 11 13  1  0  0  0  0
 11 14  1  0  0  0  0
 14 15  1  0  0  0  0
 16 17  2  0  0  0  0
 16 18  1  0  0  0  0
 18 19  1  0  0  0  0
 18 20  1  0  0  0  0
 20 21  1  0  0  0  0
 20 22  1  0  0  0  0
 20 23  1  0  0  0  0
M  END
$$$$

  -OEChem-01062216093D

 23 22  0     1  0  0  0  0  0999 V2000
   -2.7452   -3.6268    1.3251 H   0  0  0  0  0  0  0  0  0  0  0  0
   -2.7150   -2.5454    1.1639 C   0  0  0  0  0  0  0  0  0  0  0  0
   -2.8401   -2.0451    2.1271 H   0  0  0  0  0  0  0  0  0  0  0  0
   -3.5377   -2.2642    0.5023 H   0  0  0  0  0  0  0  0  0  0  0  0
   -1.3883   -2.1501    0.5440 C   0  0  0  0  0  0  0  0  0  0  0  0
   -0.6428   -3.0107    0.1105 O   0  0  0  0  0  0  0  0  0  0  0  0
   -1.1356   -0.8259    0.2447 N   0  0  0  0  0  0  0  0  0  0  0  0
   -1.8888   -0.2095    0.5320 H   0  0  0  0  0  0  0  0  0  0  0  0
    0.2210   -0.2319    0.3363 C   0  0  1  0  0  0  0  0  0  0  0  0
    0.0808    0.8395    0.1705 H   0  0  0  0  0  0  0  0  0  0  0  0
    0.8482   -0.3397    1.7439 C   0  0  0  0  0  0  0  0  0  0  0  0
    1.7823    0.2315    1.7620 H   0  0  0  0  0  0  0  0  0  0  0  0
    0.1735    0.1164    2.4751 H   0  0  0  0  0  0  0  0  0  0  0  0
    1.1223   -1.6843    2.1425 O   0  0  0  0  0  0  0  0  0  0  0  0
    1.7870   -1.7130    2.8512 H   0  0  0  0  0  0  0  0  0  0  0  0
    1.1835   -0.6370   -0.8016 C   0  0  0  0  0  0  0  0  0  0  0  0
    2.3867   -0.4212   -0.7023 O   0  0  0  0  0  0  0  0  0  0  0  0
    0.6651   -0.9325   -2.0489 N   0  0  0  0  0  0  0  0  0  0  0  0
   -0.2863   -1.2905   -2.0235 H   0  0  0  0  0  0  0  0  0  0  0  0
    1.5112   -1.3279   -3.1676 C   0  0  0  0  0  0  0  0  0  0  0  0
    2.0557   -2.2473   -2.9279 H   0  0  0  0  0  0  0  0  0  0  0  0
    0.9004   -1.5065   -4.0575 H   0  0  0  0  0  0  0  0  0  0  0  0
    2.2350   -0.5401   -3.4010 H   0  0  0  0  0  0  0  0  0  0  0  0
  1  2  1  0  0  0  0
  2  3  1  0  0  0  0
  2  4  1  0  0  0  0
  2  5  1  0  0  0  0
  5  6  2  0  0  0  0
  5  7  1  0  0  0  0
  7  8  1  0  0  0  0
  7  9  1  0  0  0  0
  9 10  1  0  0  0  0
  9 11  1  0  0  0  0
  9 16  1  0  0  0  0
 11 12  1  0  0  0  0
 11 13  1  0  0  0  0
 11 14  1  0  0  0  0
 14 15  1  0  0  0  0
 16 17  2  0  0  0  0
 16 18  1  0  0  0  0
 18 19  1  0  0  0  0
 18 20  1  0  0  0  0
 20 21  1  0  0  0  0
 20 22  1  0  0  0  0
 20 23  1  0  0  0  0
M  END
$$$$

  -OEChem-01062216093D

 23 22  0     1  0  0  0  0  0999 V2000
   -2.6635   -3.6865    1.2630 H   0  0  0  0  0  0  0  0  0  0  0  0
   -2.6720   -2.6026    1.1168 C   0  0  0  0  0  0  0  0  0  0  0  0
   -2.9019   -2.1229    2.0712 H   0  0  0  0  0  0  0  0  0  0  0  0
   -3.4487   -2.3513    0.3908 H   0  0  0  0  0  0  0  0  0  0  0  0
   -1.3183   -2.1351    0.6172 C   0  0  0  0  0  0  0  0  0  0  0  0
   -0.4489   -2.9503    0.3580 O   0  0  0  0  0  0  0  0  0  0  0  0
   -1.1195   -0.8054    0.2961 N   0  0  0  0  0  0  0  0  0  0  0  0
   -1.9116   -0.2152    0.5314 H   0  0  0  0  0  0  0  0  0  0  0  0
    0.2108   -0.1612    0.3987 C   0  0  1  0  0  0  0  0  0  0  0  0
    0.0393    0.9022    0.2119 H   0  0  0  0  0  0  0  0  0  0  0  0
    0.8228   -0.2135    1.8171 C   0  0  0  0  0  0  0  0  0  0  0  0
    1.7348    0.3930    1.8331 H   0  0  0  0  0  0  0  0  0  0  0  0
    0.1224    0.2337    2.5292 H   0  0  0  0  0  0  0  0  0  0  0  0
    1.1443   -1.5333    2.2575 O   0  0  0  0  0  0  0  0  0  0  0  0
    1.5762   -2.0344    1.5361 H   0  0  0  0  0  0  0  0  0  0  0  0
    1.1814   -0.5697   -0.7305 C   0  0  0  0  0  0  0  0  0  0  0  0
    2.3727   -0.7444   -0.5069 O   0  0  0  0  0  0  0  0  0  0  0  0
    0.7290   -0.6036   -2.0368 N   0  0  0  0  0  0  0  0  0  0  0  0
   -0.2798   -0.6352   -2.1495 H   0  0  0  0  0  0  0  0  0  0  0  0
    1.5623   -1.0633   -3.1411 C   0  0  0  0  0  0  0  0  0  0  0  0
    1.8635   -2.1047   -2.9852 H   0  0  0  0  0  0  0  0  0  0  0  0
    1.0103   -0.9985   -4.0835 H   0  0  0  0  0  0  0  0  0  0  0  0
    2.4622   -0.4454   -3.2270 H   0  0  0  0  0  0  0  0  0  0  0  0
  1  2  1  0  0  0  0
  2  3  1  0  0  0  0
  2  4  1  0  0  0  0
  2  5  1  0  0  0  0
  5  6  2  0  0  0  0
  5  7  1  0  0  0  0
  7  8  1  0  0  0  0
  7  9  1  0  0  0  0
  9 10  1  0  0  0  0
  9 11  1  0  0  0  0
  9 16  1  0  0  0  0
 11 12  1  0  0  0  0
 11 13  1  0  0  0  0
 11 14  1  0  0  0  0
 14 15  1  0  0  0  0
 16 17  2  0  0  0  0
 16 18  1  0  0  0  0
 18 19  1  0  0  0  0
 18 20  1  0  0  0  0
 20 21  1  0  0  0  0
 20 22  1  0  0  0  0
 20 23  1  0  0  0  0
M  END
$$$$

  -OEChem-01062216093D

 23 22  0     1  0  0  0  0  0999 V2000
   -2.6520   -3.6941    1.2941 H   0  0  0  0  0  0  0  0  0  0  0  0
   -2.6697   -2.6144    1.1195 C   0  0  0  0  0  0  0  0  0  0  0  0
   -2.9168   -2.1129    2.0583 H   0  0  0  0  0  0  0  0  0  0  0  0
   -3.4392   -2.3900    0.3771 H   0  0  0  0  0  0  0  0  0  0  0  0
   -1.3142   -2.1470    0.6246 C   0  0  0  0  0  0  0  0  0  0  0  0
   -0.4415   -2.9634    0.3826 O   0  0  0  0  0  0  0  0  0  0  0  0
   -1.1177   -0.8188    0.2953 N   0  0  0  0  0  0  0  0  0  0  0  0
   -1.9160   -0.2312    0.5147 H   0  0  0  0  0  0  0  0  0  0  0  0
    0.2074   -0.1647    0.3948 C   0  0  1  0  0  0  0  0  0  0  0  0
    0.0301    0.8978    0.2073 H   0  0  0  0  0  0  0  0  0  0  0  0
    0.8235   -0.2092    1.8115 C   0  0  0  0  0  0  0  0  0  0  0  0
    1.7322    0.4019    1.8202 H   0  0  0  0  0  0  0  0  0  0  0  0
    0.1234    0.2355    2.5255 H   0  0  0  0  0  0  0  0  0  0  0  0
    1.1561   -1.5253    2.2523 O   0  0  0  0  0  0  0  0  0  0  0  0
    1.5727   -2.0263    1.5198 H   0  0  0  0  0  0  0  0  0  0  0  0
    1.1805   -0.5764   -0.7315 C   0  0  0  0  0  0  0  0  0  0  0  0
    2.3120   -0.9714   -0.4778 O   0  0  0  0  0  0  0  0  0  0  0  0
    0.8377   -0.3292   -2.0487 N   0  0  0  0  0  0  0  0  0  0  0  0
   -0.1444   -0.1459   -2.2285 H   0  0  0  0  0  0  0  0  0  0  0  0
    1.6865   -0.7221   -3.1672 C   0  0  0  0  0  0  0  0  0  0  0  0
    1.8314   -1.8076   -3.1749 H   0  0  0  0  0  0  0  0  0  0  0  0
    1.2250   -0.4263   -4.1141 H   0  0  0  0  0  0  0  0  0  0  0  0
    2.6656   -0.2367   -3.0961 H   0  0  0  0  0  0  0  0  0  0  0  0
  1  2  1  0  0  0  0
  2  3  1  0  0  0  0
  2  4  1  0  0  0  0
  2  5  1  0  0  0  0
  5  6  2  0  0  0  0
  5  7  1  0  0  0  0
  7  8  1  0  0  0  0
  7  9  1  0  0  0  0
  9 10  1  0  0  0  0
  9 11  1  0  0  0  0
  9 16  1  0  0  0  0
 11 12  1  0  0  0  0
 11 13  1  0  0  0  0
 11 14  1  0  0  0  0
 14 15  1  0  0  0  0
 16 17  2  0  0  0  0
 16 18  1  0  0  0  0
 18 19  1  0  0  0  0
 18 20  1  0  0  0  0
 20 21  1  0  0  0  0
 20 22  1  0  0  0  0
 20 23  1  0  0  0  0
M  END
$$$$

  -OEChem-01062216093D

 23 22  0     1  0  0  0  0  0999 V2000
   -2.6645   -3.7025    1.2933 H   0  0  0  0  0  0  0  0  0  0  0  0
   -2.6794   -2.6251    1.1054 C   0  0  0  0  0  0  0  0  0  0  0  0
   -2.9540   -2.1129    2.0306 H   0  0  0  0  0  0  0  0  0  0  0  0
   -3.4286   -2.4123    0.3393 H   0  0  0  0  0  0  0  0  0  0  0  0
   -1.3118   -2.1600    0.6420 C   0  0  0  0  0  0  0  0  0  0  0  0
   -0.4337   -2.9794    0.4349 O   0  0  0  0  0  0  0  0  0  0  0  0
   -1.1128   -0.8338    0.3053 N   0  0  0  0  0  0  0  0  0  0  0  0
   -1.9177   -0.2472    0.5009 H   0  0  0  0  0  0  0  0  0  0  0  0
    0.2074   -0.1684    0.3930 C   0  0  1  0  0  0  0  0  0  0  0  0
    0.0195    0.8922    0.2071 H   0  0  0  0  0  0  0  0  0  0  0  0
    0.8366   -0.2035    1.8040 C   0  0  0  0  0  0  0  0  0  0  0  0
    1.7421    0.4124    1.7994 H   0  0  0  0  0  0  0  0  0  0  0  0
    0.1424    0.2394    2.5248 H   0  0  0  0  0  0  0  0  0  0  0  0
    1.1837   -1.5156    2.2436 O   0  0  0  0  0  0  0  0  0  0  0  0
    1.5466   -2.0303    1.4899 H   0  0  0  0  0  0  0  0  0  0  0  0
    1.1815   -0.5780   -0.7342 C   0  0  0  0  0  0  0  0  0  0  0  0
    2.2178   -1.1828   -0.4870 O   0  0  0  0  0  0  0  0  0  0  0  0
    0.9954   -0.0769   -2.0109 N   0  0  0  0  0  0  0  0  0  0  0  0
    0.0867    0.3259   -2.2159 H   0  0  0  0  0  0  0  0  0  0  0  0
    1.8740   -0.4153   -3.1247 C   0  0  0  0  0  0  0  0  0  0  0  0
    1.8751   -1.4970   -3.2967 H   0  0  0  0  0  0  0  0  0  0  0  0
    1.5345    0.0811   -4.0387 H   0  0  0  0  0  0  0  0  0  0  0  0
    2.8992   -0.0904   -2.9177 H   0  0  0  0  0  0  0  0  0  0  0  0
  1  2  1  0  0  0  0
  2  3  1  0  0  0  0
  2  4  1  0  0  0  0
  2  5  1  0  0  0  0
  5  6  2  0  0  0  0
  5  7  1  0  0  0  0
  7  8  1  0  0  0  0
  7  9  1  0  0  0  0
  9 10  1  0  0  0  0
  9 11  1  0  0  0  0
  9 16  1  0  0  0  0
 11 12  1  0  0  0  0
 11 13  1  0  0  0  0
 11 14  1  0  0  0  0
 14 15  1  0  0  0  0
 16 17  2  0  0  0  0
 16 18  1  0  0  0  0
 18 19  1  0  0  0  0
 18 20  1  0  0  0  0
 20 21  1  0  0  0  0
 20 22  1  0  0  0  0
 20 23  1  0  0  0  0
M  END
$$$$

  -OEChem-01062216093D

 23 22  0     1  0  0  0  0  0999 V2000
   -2.6954   -3.7168    1.2599 H   0  0  0  0  0  0  0  0  0  0  0  0
   -2.6937   -2.6365    1.0884 C   0  0  0  0  0  0  0  0  0  0  0  0
   -2.9941   -2.1351    2.0116 H   0  0  0  0  0  0  0  0  0  0  0  0
   -3.4149   -2.4047    0.3012 H   0  0  0  0  0  0  0  0  0  0  0  0
   -1.3071   -2.1771    0.6784 C   0  0  0  0  0  0  0  0  0  0  0  0
   -0.4161   -2.9977    0.5504 O   0  0  0  0  0  0  0  0  0  0  0  0
   -1.1020   -0.8553    0.3268 N   0  0  0  0  0  0  0  0  0  0  0  0
   -1.9179   -0.2682    0.4670 H   0  0  0  0  0  0  0  0  0  0  0  0
    0.2124   -0.1749    0.3879 C   0  0  1  0  0  0  0  0  0  0  0  0
    0.0055    0.8817    0.1994 H   0  0  0  0  0  0  0  0  0  0  0  0
    0.8642   -0.1890    1.7881 C   0  0  0  0  0  0  0  0  0  0  0  0
    1.7635    0.4353    1.7607 H   0  0  0  0  0  0  0  0  0  0  0  0
    0.1781    0.2552    2.5160 H   0  0  0  0  0  0  0  0  0  0  0  0
    1.2335   -1.4915    2.2375 O   0  0  0  0  0  0  0  0  0  0  0  0
    1.4597   -2.0570    1.4647 H   0  0  0  0  0  0  0  0  0  0  0  0
    1.1858   -0.5797   -0.7428 C   0  0  0  0  0  0  0  0  0  0  0  0
    2.0932   -1.3771   -0.5432 O   0  0  0  0  0  0  0  0  0  0  0  0
    1.1862    0.1288   -1.9326 N   0  0  0  0  0  0  0  0  0  0  0  0
    0.4009    0.7468   -2.1088 H   0  0  0  0  0  0  0  0  0  0  0  0
    2.1081   -0.1593   -3.0257 C   0  0  0  0  0  0  0  0  0  0  0  0
    1.9858   -1.1925   -3.3677 H   0  0  0  0  0  0  0  0  0  0  0  0
    1.9161    0.5101   -3.8696 H   0  0  0  0  0  0  0  0  0  0  0  0
    3.1445   -0.0162   -2.7018 H   0  0  0  0  0  0  0  0  0  0  0  0
  1  2  1  0  0  0  0
  2  3  1  0  0  0  0
  2  4  1  0  0  0  0
  2  5  1  0  0  0  0
  5  6  2  0  0  0  0
  5  7  1  0  0  0  0
  7  8  1  0  0  0  0
  7  9  1  0  0  0  0
  9 10  1  0  0  0  0
  9 11  1  0  0  0  0
  9 16  1  0  0  0  0
 11 12  1  0  0  0  0
 11 13  1  0  0  0  0
 11 14  1  0  0  0  0
 14 15  1  0  0  0  0
 16 17  2  0  0  0  0
 16 18  1  0  0  0  0
 18 19  1  0  0  0  0
 18 20  1  0  0  0  0
 20 21  1  0  0  0  0
 20 22  1  0  0  0  0
 20 23  1  0  0  0  0
M  END
$$$$

  -OEChem-01062216093D

 23 22  0     1  0  0  0  0  0999 V2000
   -2.6600   -3.7434    1.0059 H   0  0  0  0  0  0  0  0  0  0  0  0
   -2.6119   -2.7060    0.6621 C   0  0  0  0  0  0  0  0  0  0  0  0
   -3.3765   -2.1271    1.1854 H   0  0  0  0  0  0  0  0  0  0  0  0
   -2.8149   -2.6837   -0.4112 H   0  0  0  0  0  0  0  0  0  0  0  0
   -1.2379   -2.1266    0.9423 C   0  0  0  0  0  0  0  0  0  0  0  0
   -0.4155   -2.8160    1.5182 O   0  0  0  0  0  0  0  0  0  0  0  0
   -0.9808   -0.8148    0.5830 N   0  0  0  0  0  0  0  0  0  0  0  0
   -1.7420   -0.3681    0.0816 H   0  0  0  0  0  0  0  0  0  0  0  0
    0.3335   -0.1221    0.5508 C   0  0  1  0  0  0  0  0  0  0  0  0
    0.0983    0.9325    0.3872 H   0  0  0  0  0  0  0  0  0  0  0  0
    1.1542   -0.1259    1.8587 C   0  0  0  0  0  0  0  0  0  0  0  0
    2.0181    0.5373    1.7484 H   0  0  0  0  0  0  0  0  0  0  0  0
    0.5266    0.2822    2.6572 H   0  0  0  0  0  0  0  0  0  0  0  0
    1.6167   -1.4095    2.2685 O   0  0  0  0  0  0  0  0  0  0  0  0
    0.9357   -2.0967    2.0408 H   0  0  0  0  0  0  0  0  0  0  0  0
    1.1987   -0.5479   -0.6581 C   0  0  0  0  0  0  0  0  0  0  0  0
    1.5892   -1.6966   -0.8056 O   0  0  0  0  0  0  0  0  0  0  0  0
    1.3386    0.3201   -1.7293 N   0  0  0  0  0  0  0  0  0  0  0  0
    1.0123    1.2740   -1.6144 H   0  0  0  0  0  0  0  0  0  0  0  0
    2.0521   -0.0336   -2.9517 C   0  0  0  0  0  0  0  0  0  0  0  0
    1.5590   -0.8727   -3.4538 H   0  0  0  0  0  0  0  0  0  0  0  0
    2.0712    0.8170   -3.6395 H   0  0  0  0  0  0  0  0  0  0  0  0
    3.0851   -0.3176   -2.7244 H   0  0  0  0  0  0  0  0  0  0  0  0
  1  2  1  0  0  0  0
  2  3  1  0  0  0  0
  2  4  1  0  0  0  0
  2  5  1  0  0  0  0
  5  6  2  0  0  0  0
  5  7  1  0  0  0  0
  7  8  1  0  0  0  0
  7  9  1  0  0  0  0
  9 10  1  0  0  0  0
  9 11  1  0  0  0  0
  9 16  1  0  0  0  0
 11 12  1  0  0  0  0
 11 13  1  0  0  0  0
 11 14  1  0  0  0  0
 14 15  1  0  0  0  0
 16 17  2  0  0  0  0
 16 18  1  0  0  0  0
 18 19  1  0  0  0  0
 18 20  1  0  0  0  0
 20 21  1  0  0  0  0
 20 22  1  0  0  0  0
 20 23  1  0  0  0  0
M  END
$$$$

  -OEChem-01062216093D

 23 22  0     1  0  0  0  0  0999 V2000
   -2.6994   -3.6776    1.0718 H   0  0  0  0  0  0  0  0  0  0  0  0
   -2.5998   -2.6724    0.6518 C   0  0  0  0  0  0  0  0  0  0  0  0
   -3.4014   -2.0451    1.0489 H   0  0  0  0  0  0  0  0  0  0  0  0
   -2.6968   -2.7360   -0.4349 H   0  0  0  0  0  0  0  0  0  0  0  0
   -1.2486   -2.0859    1.0152 C   0  0  0  0  0  0  0  0  0  0  0  0
   -0.4702   -2.7619    1.6652 O   0  0  0  0  0  0  0  0  0  0  0  0
   -0.9737   -0.7768    0.6584 N   0  0  0  0  0  0  0  0  0  0  0  0
   -1.7010   -0.3599    0.0859 H   0  0  0  0  0  0  0  0  0  0  0  0
    0.3585   -0.1192    0.5892 C   0  0  1  0  0  0  0  0  0  0  0  0
    0.1437    0.9434    0.4513 H   0  0  0  0  0  0  0  0  0  0  0  0
    1.2509   -0.1755    1.8464 C   0  0  0  0  0  0  0  0  0  0  0  0
    2.1245    0.4690    1.7041 H   0  0  0  0  0  0  0  0  0  0  0  0
    0.6814    0.2247    2.6909 H   0  0  0  0  0  0  0  0  0  0  0  0
    1.6995   -1.4833    2.1874 O   0  0  0  0  0  0  0  0  0  0  0  0
    0.9533   -2.1296    2.0659 H   0  0  0  0  0  0  0  0  0  0  0  0
    1.1712   -0.5556   -0.6515 C   0  0  0  0  0  0  0  0  0  0  0  0
    1.2278   -1.7280   -0.9972 O   0  0  0  0  0  0  0  0  0  0  0  0
    1.5685    0.4010   -1.5717 N   0  0  0  0  0  0  0  0  0  0  0  0
    1.5227    1.3749   -1.2896 H   0  0  0  0  0  0  0  0  0  0  0  0
    2.2390    0.0686   -2.8242 C   0  0  0  0  0  0  0  0  0  0  0  0
    1.5772   -0.5192   -3.4689 H   0  0  0  0  0  0  0  0  0  0  0  0
    2.5191    0.9816   -3.3583 H   0  0  0  0  0  0  0  0  0  0  0  0
    3.1480   -0.5111   -2.6310 H   0  0  0  0  0  0  0  0  0  0  0  0
  1  2  1  0  0  0  0
  2  3  1  0  0  0  0
  2  4  1  0  0  0  0
  2  5  1  0  0  0  0
  5  6  2  0  0  0  0
  5  7  1  0  0  0  0
  7  8  1  0  0  0  0
  7  9  1  0  0  0  0
  9 10  1  0  0  0  0
  9 11  1  0  0  0  0
  9 16  1  0  0  0  0
 11 12  1  0  0  0  0
 11 13  1  0  0  0  0
 11 14  1  0  0  0  0
 14 15  1  0  0  0  0
 16 17  2  0  0  0  0
 16 18  1  0  0  0  0
 18 19  1  0  0  0  0
 18 20  1  0  0  0  0
 20 21  1  0  0  0  0
 20 22  1  0  0  0  0
 20 23  1  0  0  0  0
M  END
$$$$

  -OEChem-01062216093D

 23 22  0     1  0  0  0  0  0999 V2000
   -2.6946   -3.6854    1.0497 H   0  0  0  0  0  0  0  0  0  0  0  0
   -2.5994   -2.6738    0.6446 C   0  0  0  0  0  0  0  0  0  0  0  0
   -3.4129   -2.0599    1.0380 H   0  0  0  0  0  0  0  0  0  0  0  0
   -2.6798   -2.7240   -0.4441 H   0  0  0  0  0  0  0  0  0  0  0  0
   -1.2598   -2.0782    1.0354 C   0  0  0  0  0  0  0  0  0  0  0  0
   -0.4920   -2.7470    1.7061 O   0  0  0  0  0  0  0  0  0  0  0  0
   -0.9825   -0.7701    0.6768 N   0  0  0  0  0  0  0  0  0  0  0  0
   -1.6954   -0.3696    0.0751 H   0  0  0  0  0  0  0  0  0  0  0  0
    0.3529   -0.1179    0.6014 C   0  0  1  0  0  0  0  0  0  0  0  0
    0.1422    0.9458    0.4652 H   0  0  0  0  0  0  0  0  0  0  0  0
    1.2600   -0.1878    1.8463 C   0  0  0  0  0  0  0  0  0  0  0  0
    2.1351    0.4533    1.6990 H   0  0  0  0  0  0  0  0  0  0  0  0
    0.7033    0.2070    2.7021 H   0  0  0  0  0  0  0  0  0  0  0  0
    1.7041   -1.5027    2.1644 O   0  0  0  0  0  0  0  0  0  0  0  0
    0.9401   -2.1351    2.0843 H   0  0  0  0  0  0  0  0  0  0  0  0
    1.1615   -0.5558   -0.6416 C   0  0  0  0  0  0  0  0  0  0  0  0
    0.9891   -1.6551   -1.1537 O   0  0  0  0  0  0  0  0  0  0  0  0
    1.8243    0.4029   -1.3905 N   0  0  0  0  0  0  0  0  0  0  0  0
    1.9840    1.3070   -0.9571 H   0  0  0  0  0  0  0  0  0  0  0  0
    2.5219    0.0961   -2.6345 C   0  0  0  0  0  0  0  0  0  0  0  0
    1.8174   -0.2646   -3.3914 H   0  0  0  0  0  0  0  0  0  0  0  0
    3.0148    0.9928   -3.0222 H   0  0  0  0  0  0  0  0  0  0  0  0
    3.2839   -0.6730   -2.4677 H   0  0  0  0  0  0  0  0  0  0  0  0
  1  2  1  0  0  0  0
  2  3  1  0  0  0  0
  2  4  1  0  0  0  0
  2  5  1  0  0  0  0
  5  6  2  0  0  0  0
  5  7  1  0  0  0  0
  7  8  1  0  0  0  0
  7  9  1  0  0  0  0
  9 10  1  0  0  0  0
  9 11  1  0  0  0  0
  9 16  1  0  0  0  0
 11 12  1  0  0  0  0
 11 13  1  0  0  0  0
 11 14  1  0  0  0  0
 14 15  1  0  0  0  0
 16 17  2  0  0  0  0
 16 18  1  0  0  0  0
 18 19  1  0  0  0  0
 18 20  1  0  0  0  0
 20 21  1  0  0  0  0
 20 22  1  0  0  0  0
 20 23  1  0  0  0  0
M  END
$$$$

  -OEChem-01062216093D

 23 22  0     1  0  0  0  0  0999 V2000
   -2.6990   -3.6841    1.0534 H   0  0  0  0  0  0  0  0  0  0  0  0
   -2.6028   -2.6722    0.6491 C   0  0  0  0  0  0  0  0  0  0  0  0
   -3.4173   -2.0585    1.0409 H   0  0  0  0  0  0  0  0  0  0  0  0
   -2.6809   -2.7216   -0.4399 H   0  0  0  0  0  0  0  0  0  0  0  0
   -1.2642   -2.0762    1.0421 C   0  0  0  0  0  0  0  0  0  0  0  0
   -0.4913   -2.7497    1.7024 O   0  0  0  0  0  0  0  0  0  0  0  0
   -0.9869   -0.7678    0.6855 N   0  0  0  0  0  0  0  0  0  0  0  0
   -1.6942   -0.3731    0.0731 H   0  0  0  0  0  0  0  0  0  0  0  0
    0.3484   -0.1148    0.6100 C   0  0  1  0  0  0  0  0  0  0  0  0
    0.1412    0.9497    0.4721 H   0  0  0  0  0  0  0  0  0  0  0  0
    1.2563   -0.1906    1.8545 C   0  0  0  0  0  0  0  0  0  0  0  0
    2.1313    0.4521    1.7140 H   0  0  0  0  0  0  0  0  0  0  0  0
    0.6986    0.1980    2.7125 H   0  0  0  0  0  0  0  0  0  0  0  0
    1.6991   -1.5079    2.1637 O   0  0  0  0  0  0  0  0  0  0  0  0
    0.9303   -2.1362    2.0951 H   0  0  0  0  0  0  0  0  0  0  0  0
    1.1552   -0.5521   -0.6353 C   0  0  0  0  0  0  0  0  0  0  0  0
    0.8015   -1.5162   -1.3048 O   0  0  0  0  0  0  0  0  0  0  0  0
    2.0620    0.3271   -1.2040 N   0  0  0  0  0  0  0  0  0  0  0  0
    2.3864    1.0966   -0.6265 H   0  0  0  0  0  0  0  0  0  0  0  0
    2.7902    0.0277   -2.4322 C   0  0  0  0  0  0  0  0  0  0  0  0
    2.0975   -0.0702   -3.2746 H   0  0  0  0  0  0  0  0  0  0  0  0
    3.4964    0.8322   -2.6590 H   0  0  0  0  0  0  0  0  0  0  0  0
    3.3521   -0.9067   -2.3277 H   0  0  0  0  0  0  0  0  0  0  0  0
  1  2  1  0  0  0  0
  2  3  1  0  0  0  0
  2  4  1  0  0  0  0
  2  5  1  0  0  0  0
  5  6  2  0  0  0  0
  5  7  1  0  0  0  0
  7  8  1  0  0  0  0
  7  9  1  0  0  0  0
  9 10  1  0  0  0  0
  9 11  1  0  0  0  0
  9 16  1  0  0  0  0
 11 12  1  0  0  0  0
 11 13  1  0  0  0  0
 11 14  1  0  0  0  0
 14 15  1  0  0  0  0
 16 17  2  0  0  0  0
 16 18  1  0  0  0  0
 18 19  1  0  0  0  0
 18 20  1  0  0  0  0
 20 21  1  0  0  0  0
 20 22  1  0  0  0  0
 20 23  1  0  0  0  0
M  END
$$$$

  -OEChem-01062216093D

 23 22  0     1  0  0  0  0  0999 V2000
   -2.6889   -3.6934    1.0202 H   0  0  0  0  0  0  0  0  0  0  0  0
   -2.6093   -2.6665    0.6521 C   0  0  0  0  0  0  0  0  0  0  0  0
   -3.4170   -2.0733    1.0874 H   0  0  0  0  0  0  0  0  0  0  0  0
   -2.7152   -2.6754   -0.4357 H   0  0  0  0  0  0  0  0  0  0  0  0
   -1.2648   -2.0765    1.0338 C   0  0  0  0  0  0  0  0  0  0  0  0
   -0.4795   -2.7615    1.6672 O   0  0  0  0  0  0  0  0  0  0  0  0
   -0.9887   -0.7664    0.6845 N   0  0  0  0  0  0  0  0  0  0  0  0
   -1.6935   -0.3713    0.0689 H   0  0  0  0  0  0  0  0  0  0  0  0
    0.3435   -0.1060    0.6171 C   0  0  1  0  0  0  0  0  0  0  0  0
    0.1379    0.9588    0.4789 H   0  0  0  0  0  0  0  0  0  0  0  0
    1.2422   -0.1858    1.8691 C   0  0  0  0  0  0  0  0  0  0  0  0
    2.1145    0.4633    1.7446 H   0  0  0  0  0  0  0  0  0  0  0  0
    0.6738    0.1934    2.7243 H   0  0  0  0  0  0  0  0  0  0  0  0
    1.6881   -1.5031    2.1741 O   0  0  0  0  0  0  0  0  0  0  0  0
    0.9227   -2.1348    2.0975 H   0  0  0  0  0  0  0  0  0  0  0  0
    1.1498   -0.5413   -0.6300 C   0  0  0  0  0  0  0  0  0  0  0  0
    0.6707   -1.3352   -1.4330 O   0  0  0  0  0  0  0  0  0  0  0  0
    2.2618    0.1843   -1.0231 N   0  0  0  0  0  0  0  0  0  0  0  0
    2.6957    0.7731   -0.3187 H   0  0  0  0  0  0  0  0  0  0  0  0
    3.0292   -0.1355   -2.2215 C   0  0  0  0  0  0  0  0  0  0  0  0
    2.4070   -0.0288   -3.1162 H   0  0  0  0  0  0  0  0  0  0  0  0
    3.8836    0.5415   -2.3145 H   0  0  0  0  0  0  0  0  0  0  0  0
    3.4051   -1.1631   -2.1737 H   0  0  0  0  0  0  0  0  0  0  0  0
  1  2  1  0  0  0  0
  2  3  1  0  0  0  0
  2  4  1  0  0  0  0
  2  5  1  0  0  0  0
  5  6  2  0  0  0  0
  5  7  1  0  0  0  0
  7  8  1  0  0  0  0
  7  9  1  0  0  0  0
  9 10  1  0  0  0  0
  9 11  1  0  0  0  0
  9 16  1  0  0  0  0
 11 12  1  0  0  0  0
 11 13  1  0  0  0  0
 11 14  1  0  0  0  0
 14 15  1  0  0  0  0
 16 17  2  0  0  0  0
 16 18  1  0  0  0  0
 18 19  1  0  0  0  0
 18 20  1  0  0  0  0
 20 21  1  0  0  0  0
 20 22  1  0  0  0  0
 20 23  1  0  0  0  0
M  END
$$$$

  -OEChem-01062216093D

 23 22  0     1  0  0  0  0  0999 V2000
   -2.6908   -3.7109    0.8925 H   0  0  0  0  0  0  0  0  0  0  0  0
   -2.6097   -2.6617    0.5940 C   0  0  0  0  0  0  0  0  0  0  0  0
   -3.4068   -2.0950    1.0812 H   0  0  0  0  0  0  0  0  0  0  0  0
   -2.7337   -2.5959   -0.4899 H   0  0  0  0  0  0  0  0  0  0  0  0
   -1.2561   -2.1048    0.9938 C   0  0  0  0  0  0  0  0  0  0  0  0
   -0.4818   -2.8250    1.6021 O   0  0  0  0  0  0  0  0  0  0  0  0
   -0.9596   -0.7941    0.6660 N   0  0  0  0  0  0  0  0  0  0  0  0
   -1.6463   -0.3936    0.0316 H   0  0  0  0  0  0  0  0  0  0  0  0
    0.3650   -0.1151    0.6271 C   0  0  1  0  0  0  0  0  0  0  0  0
    0.1579    0.9503    0.7587 H   0  0  0  0  0  0  0  0  0  0  0  0
    1.4018   -0.4591    1.7177 C   0  0  0  0  0  0  0  0  0  0  0  0
    2.2569    0.2207    1.6504 H   0  0  0  0  0  0  0  0  0  0  0  0
    0.9408   -0.3034    2.6983 H   0  0  0  0  0  0  0  0  0  0  0  0
    1.8675   -1.8023    1.6421 O   0  0  0  0  0  0  0  0  0  0  0  0
    1.0804   -2.4077    1.6909 H   0  0  0  0  0  0  0  0  0  0  0  0
    1.0069   -0.2483   -0.7747 C   0  0  0  0  0  0  0  0  0  0  0  0
    0.3240   -0.6342   -1.7189 O   0  0  0  0  0  0  0  0  0  0  0  0
    2.2463    0.3051   -1.0473 N   0  0  0  0  0  0  0  0  0  0  0  0
    2.8434    0.4871   -0.2454 H   0  0  0  0  0  0  0  0  0  0  0  0
    2.8710    0.2270   -2.3627 C   0  0  0  0  0  0  0  0  0  0  0  0
    2.2420    0.7121   -3.1166 H   0  0  0  0  0  0  0  0  0  0  0  0
    3.8418    0.7314   -2.3500 H   0  0  0  0  0  0  0  0  0  0  0  0
    3.0259   -0.8179   -2.6514 H   0  0  0  0  0  0  0  0  0  0  0  0
  1  2  1  0  0  0  0
  2  3  1  0  0  0  0
  2  4  1  0  0  0  0
  2  5  1  0  0  0  0
  5  6  2  0  0  0  0
  5  7  1  0  0  0  0
  7  8  1  0  0  0  0
  7  9  1  0  0  0  0
  9 10  1  0  0  0  0
  9 11  1  0  0  0  0
  9 16  1  0  0  0  0
 11 12  1  0  0  0  0
 11 13  1  0  0  0  0
 11 14  1  0  0  0  0
 14 15  1  0  0  0  0
 16 17  2  0  0  0  0
 16 18  1  0  0  0  0
 18 19  1  0  0  0  0
 18 20  1  0  0  0  0
 20 21  1  0  0  0  0
 20 22  1  0  0  0  0
 20 23  1  0  0  0  0
M  END
$$$$

  -OEChem-01062216093D

 23 22  0     1  0  0  0  0  0999 V2000
   -2.6803   -3.7143    0.8712 H   0  0  0  0  0  0  0  0  0  0  0  0
   -2.6044   -2.6608    0.5873 C   0  0  0  0  0  0  0  0  0  0  0  0
   -3.3947   -2.1018    1.0938 H   0  0  0  0  0  0  0  0  0  0  0  0
   -2.7433   -2.5787   -0.4937 H   0  0  0  0  0  0  0  0  0  0  0  0
   -1.2464   -2.1087    0.9774 C   0  0  0  0  0  0  0  0  0  0  0  0
   -0.4616   -2.8364    1.5628 O   0  0  0  0  0  0  0  0  0  0  0  0
   -0.9516   -0.7963    0.6572 N   0  0  0  0  0  0  0  0  0  0  0  0
   -1.6397   -0.3860    0.0301 H   0  0  0  0  0  0  0  0  0  0  0  0
    0.3678   -0.1088    0.6371 C   0  0  1  0  0  0  0  0  0  0  0  0
    0.1542    0.9563    0.7619 H   0  0  0  0  0  0  0  0  0  0  0  0
    1.3910   -0.4406    1.7452 C   0  0  0  0  0  0  0  0  0  0  0  0
    2.2397    0.2485    1.6908 H   0  0  0  0  0  0  0  0  0  0  0  0
    0.9121   -0.2865    2.7176 H   0  0  0  0  0  0  0  0  0  0  0  0
    1.8693   -1.7806    1.6831 O   0  0  0  0  0  0  0  0  0  0  0  0
    1.0869   -2.3934    1.7148 H   0  0  0  0  0  0  0  0  0  0  0  0
    1.0143   -0.2438   -0.7622 C   0  0  0  0  0  0  0  0  0  0  0  0
    0.2894   -0.4055   -1.7396 O   0  0  0  0  0  0  0  0  0  0  0  0
    2.3550    0.0277   -0.9720 N   0  0  0  0  0  0  0  0  0  0  0  0
    2.9493   -0.0422   -0.1491 H   0  0  0  0  0  0  0  0  0  0  0  0
    2.9854   -0.0985   -2.2805 C   0  0  0  0  0  0  0  0  0  0  0  0
    2.5051    0.5675   -3.0051 H   0  0  0  0  0  0  0  0  0  0  0  0
    4.0439    0.1710   -2.2166 H   0  0  0  0  0  0  0  0  0  0  0  0
    2.9099   -1.1288   -2.6440 H   0  0  0  0  0  0  0  0  0  0  0  0
  1  2  1  0  0  0  0
  2  3  1  0  0  0  0
  2  4  1  0  0  0  0
  2  5  1  0  0  0  0
  5  6  2  0  0  0  0
  5  7  1  0  0  0  0
  7  8  1  0  0  0  0
  7  9  1  0  0  0  0
  9 10  1  0  0  0  0
  9 11  1  0  0  0  0
  9 16  1  0  0  0  0
 11 12  1  0  0  0  0
 11 13  1  0  0  0  0
 11 14  1  0  0  0  0
 14 15  1  0  0  0  0
 16 17  2  0  0  0  0
 16 18  1  0  0  0  0
 18 19  1  0  0  0  0
 18 20  1  0  0  0  0
 20 21  1  0  0  0  0
 20 22  1  0  0  0  0
 20 23  1  0  0  0  0
M  END
$$$$

  -OEChem-01062216093D

 23 22  0     1  0  0  0  0  0999 V2000
   -2.6849   -3.7108    0.8803 H   0  0  0  0  0  0  0  0  0  0  0  0
   -2.6085   -2.6573    0.5964 C   0  0  0  0  0  0  0  0  0  0  0  0
   -3.3837   -2.0945    1.1219 H   0  0  0  0  0  0  0  0  0  0  0  0
   -2.7719   -2.5727   -0.4810 H   0  0  0  0  0  0  0  0  0  0  0  0
   -1.2384   -2.1146    0.9573 C   0  0  0  0  0  0  0  0  0  0  0  0
   -0.4392   -2.8535    1.5081 O   0  0  0  0  0  0  0  0  0  0  0  0
   -0.9425   -0.8005    0.6445 N   0  0  0  0  0  0  0  0  0  0  0  0
   -1.6414   -0.3705    0.0426 H   0  0  0  0  0  0  0  0  0  0  0  0
    0.3735   -0.1075    0.6393 C   0  0  1  0  0  0  0  0  0  0  0  0
    0.1553    0.9570    0.7614 H   0  0  0  0  0  0  0  0  0  0  0  0
    1.3872   -0.4320    1.7590 C   0  0  0  0  0  0  0  0  0  0  0  0
    2.2323    0.2622    1.7094 H   0  0  0  0  0  0  0  0  0  0  0  0
    0.8985   -0.2774    2.7264 H   0  0  0  0  0  0  0  0  0  0  0  0
    1.8739   -1.7703    1.7042 O   0  0  0  0  0  0  0  0  0  0  0  0
    1.0943   -2.3881    1.7139 H   0  0  0  0  0  0  0  0  0  0  0  0
    1.0252   -0.2415   -0.7564 C   0  0  0  0  0  0  0  0  0  0  0  0
    0.3054   -0.1932   -1.7490 O   0  0  0  0  0  0  0  0  0  0  0  0
    2.3978   -0.2700   -0.9250 N   0  0  0  0  0  0  0  0  0  0  0  0
    2.9269   -0.5430   -0.0974 H   0  0  0  0  0  0  0  0  0  0  0  0
    3.0264   -0.4479   -2.2280 C   0  0  0  0  0  0  0  0  0  0  0  0
    2.7261    0.3526   -2.9122 H   0  0  0  0  0  0  0  0  0  0  0  0
    4.1157   -0.4224   -2.1275 H   0  0  0  0  0  0  0  0  0  0  0  0
    2.7397   -1.4106   -2.6639 H   0  0  0  0  0  0  0  0  0  0  0  0
  1  2  1  0  0  0  0
  2  3  1  0  0  0  0
  2  4  1  0  0  0  0
  2  5  1  0  0  0  0
  5  6  2  0  0  0  0
  5  7  1  0  0  0  0
  7  8  1  0  0  0  0
  7  9  1  0  0  0  0
  9 10  1  0  0  0  0
  9 11  1  0  0  0  0
  9 16  1  0  0  0  0
 11 12  1  0  0  0  0
 11 13  1  0  0  0  0
 11 14  1  0  0  0  0
 14 15  1  0  0  0  0
 16 17  2  0  0  0  0
 16 18  1  0  0  0  0
 18 19  1  0  0  0  0
 18 20  1  0  0  0  0
 20 21  1  0  0  0  0
 20 22  1  0  0  0  0
 20 23  1  0  0  0  0
M  END
$$$$

  -OEChem-01062216093D

 23 22  0     1  0  0  0  0  0999 V2000
   -2.6974   -3.7053    0.8900 H   0  0  0  0  0  0  0  0  0  0  0  0
   -2.6215   -2.6490    0.6165 C   0  0  0  0  0  0  0  0  0  0  0  0
   -3.3717   -2.0864    1.1774 H   0  0  0  0  0  0  0  0  0  0  0  0
   -2.8233   -2.5484   -0.4529 H   0  0  0  0  0  0  0  0  0  0  0  0
   -1.2337   -2.1239    0.9335 C   0  0  0  0  0  0  0  0  0  0  0  0
   -0.4213   -2.8768    1.4440 O   0  0  0  0  0  0  0  0  0  0  0  0
   -0.9342   -0.8100    0.6245 N   0  0  0  0  0  0  0  0  0  0  0  0
   -1.6505   -0.3551    0.0629 H   0  0  0  0  0  0  0  0  0  0  0  0
    0.3797   -0.1147    0.6276 C   0  0  1  0  0  0  0  0  0  0  0  0
    0.1571    0.9495    0.7466 H   0  0  0  0  0  0  0  0  0  0  0  0
    1.3797   -0.4321    1.7623 C   0  0  0  0  0  0  0  0  0  0  0  0
    2.2258    0.2612    1.7114 H   0  0  0  0  0  0  0  0  0  0  0  0
    0.8813   -0.2668    2.7228 H   0  0  0  0  0  0  0  0  0  0  0  0
    1.8705   -1.7714    1.7270 O   0  0  0  0  0  0  0  0  0  0  0  0
    1.0922   -2.3914    1.7174 H   0  0  0  0  0  0  0  0  0  0  0  0
    1.0424   -0.2439   -0.7616 C   0  0  0  0  0  0  0  0  0  0  0  0
    0.3677   -0.0007   -1.7563 O   0  0  0  0  0  0  0  0  0  0  0  0
    2.3776   -0.5705   -0.9124 N   0  0  0  0  0  0  0  0  0  0  0  0
    2.8185   -0.9755   -0.0847 H   0  0  0  0  0  0  0  0  0  0  0  0
    2.9968   -0.8015   -2.2111 C   0  0  0  0  0  0  0  0  0  0  0  0
    2.8809    0.0773   -2.8543 H   0  0  0  0  0  0  0  0  0  0  0  0
    4.0664   -0.9977   -2.0890 H   0  0  0  0  0  0  0  0  0  0  0  0
    2.5382   -1.6640   -2.7057 H   0  0  0  0  0  0  0  0  0  0  0  0
  1  2  1  0  0  0  0
  2  3  1  0  0  0  0
  2  4  1  0  0  0  0
  2  5  1  0  0  0  0
  5  6  2  0  0  0  0
  5  7  1  0  0  0  0
  7  8  1  0  0  0  0
  7  9  1  0  0  0  0
  9 10  1  0  0  0  0
  9 11  1  0  0  0  0
  9 16  1  0  0  0  0
 11 12  1  0  0  0  0
 11 13  1  0  0  0  0
 11 14  1  0  0  0  0
 14 15  1  0  0  0  0
 16 17  2  0  0  0  0
 16 18  1  0  0  0  0
 18 19  1  0  0  0  0
 18 20  1  0  0  0  0
 20 21  1  0  0  0  0
 20 22  1  0  0  0  0
 20 23  1  0  0  0  0
M  END
$$$$

  -OEChem-01062216093D

 23 22  0     1  0  0  0  0  0999 V2000
   -2.7058   -3.7037    0.8885 H   0  0  0  0  0  0  0  0  0  0  0  0
   -2.6316   -2.6423    0.6350 C   0  0  0  0  0  0  0  0  0  0  0  0
   -3.3592   -2.0868    1.2317 H   0  0  0  0  0  0  0  0  0  0  0  0
   -2.8678   -2.5182   -0.4248 H   0  0  0  0  0  0  0  0  0  0  0  0
   -1.2308   -2.1320    0.9171 C   0  0  0  0  0  0  0  0  0  0  0  0
   -0.4097   -2.8964    1.3955 O   0  0  0  0  0  0  0  0  0  0  0  0
   -0.9270   -0.8195    0.6068 N   0  0  0  0  0  0  0  0  0  0  0  0
   -1.6600   -0.3434    0.0858 H   0  0  0  0  0  0  0  0  0  0  0  0
    0.3857   -0.1229    0.6117 C   0  0  1  0  0  0  0  0  0  0  0  0
    0.1604    0.9413    0.7259 H   0  0  0  0  0  0  0  0  0  0  0  0
    1.3725   -0.4350    1.7607 C   0  0  0  0  0  0  0  0  0  0  0  0
    2.2215    0.2547    1.7081 H   0  0  0  0  0  0  0  0  0  0  0  0
    0.8649   -0.2574    2.7143 H   0  0  0  0  0  0  0  0  0  0  0  0
    1.8639   -1.7762    1.7473 O   0  0  0  0  0  0  0  0  0  0  0  0
    1.0862   -2.3967    1.7230 H   0  0  0  0  0  0  0  0  0  0  0  0
    1.0589   -0.2502   -0.7710 C   0  0  0  0  0  0  0  0  0  0  0  0
    0.4578    0.1688   -1.7535 O   0  0  0  0  0  0  0  0  0  0  0  0
    2.2893   -0.8569   -0.9355 N   0  0  0  0  0  0  0  0  0  0  0  0
    2.6529   -1.3408   -0.1113 H   0  0  0  0  0  0  0  0  0  0  0  0
    2.8829   -1.1358   -2.2360 C   0  0  0  0  0  0  0  0  0  0  0  0
    2.9892   -0.2132   -2.8162 H   0  0  0  0  0  0  0  0  0  0  0  0
    3.8758   -1.5783   -2.1095 H   0  0  0  0  0  0  0  0  0  0  0  0
    2.2587   -1.8371   -2.7992 H   0  0  0  0  0  0  0  0  0  0  0  0
  1  2  1  0  0  0  0
  2  3  1  0  0  0  0
  2  4  1  0  0  0  0
  2  5  1  0  0  0  0
  5  6  2  0  0  0  0
  5  7  1  0  0  0  0
  7  8  1  0  0  0  0
  7  9  1  0  0  0  0
  9 10  1  0  0  0  0
  9 11  1  0  0  0  0
  9 16  1  0  0  0  0
 11 12  1  0  0  0  0
 11 13  1  0  0  0  0
 11 14  1  0  0  0  0
 14 15  1  0  0  0  0
 16 17  2  0  0  0  0
 16 18  1  0  0  0  0
 18 19  1  0  0  0  0
 18 20  1  0  0  0  0
 20 21  1  0  0  0  0
 20 22  1  0  0  0  0
 20 23  1  0  0  0  0
M  END
$$$$

  -OEChem-01062216093D

 23 22  0     1  0  0  0  0  0999 V2000
   -2.7471   -3.6797    0.9631 H   0  0  0  0  0  0  0  0  0  0  0  0
   -2.6567   -2.6289    0.6730 C   0  0  0  0  0  0  0  0  0  0  0  0
   -3.3604   -2.0394    1.2657 H   0  0  0  0  0  0  0  0  0  0  0  0
   -2.9125   -2.5344   -0.3853 H   0  0  0  0  0  0  0  0  0  0  0  0
   -1.2404   -2.1393    0.9102 C   0  0  0  0  0  0  0  0  0  0  0  0
   -0.4151   -2.9160    1.3608 O   0  0  0  0  0  0  0  0  0  0  0  0
   -0.9271   -0.8312    0.5904 N   0  0  0  0  0  0  0  0  0  0  0  0
   -1.6736   -0.3346    0.1096 H   0  0  0  0  0  0  0  0  0  0  0  0
    0.3892   -0.1415    0.5886 C   0  0  1  0  0  0  0  0  0  0  0  0
    0.1685    0.9246    0.6965 H   0  0  0  0  0  0  0  0  0  0  0  0
    1.3688   -0.4514    1.7446 C   0  0  0  0  0  0  0  0  0  0  0  0
    2.2244    0.2296    1.6858 H   0  0  0  0  0  0  0  0  0  0  0  0
    0.8603   -0.2583    2.6947 H   0  0  0  0  0  0  0  0  0  0  0  0
    1.8519   -1.7965    1.7494 O   0  0  0  0  0  0  0  0  0  0  0  0
    1.0708   -2.4127    1.7257 H   0  0  0  0  0  0  0  0  0  0  0  0
    1.0679   -0.2770   -0.7891 C   0  0  0  0  0  0  0  0  0  0  0  0
    0.5811    0.3213   -1.7408 O   0  0  0  0  0  0  0  0  0  0  0  0
    2.1284   -1.1360   -1.0005 N   0  0  0  0  0  0  0  0  0  0  0  0
    2.4373   -1.6752   -0.1885 H   0  0  0  0  0  0  0  0  0  0  0  0
    2.7138   -1.4066   -2.3061 C   0  0  0  0  0  0  0  0  0  0  0  0
    3.0604   -0.4777   -2.7710 H   0  0  0  0  0  0  0  0  0  0  0  0
    3.5696   -2.0806   -2.2027 H   0  0  0  0  0  0  0  0  0  0  0  0
    1.9780   -1.8785   -2.9651 H   0  0  0  0  0  0  0  0  0  0  0  0
  1  2  1  0  0  0  0
  2  3  1  0  0  0  0
  2  4  1  0  0  0  0
  2  5  1  0  0  0  0
  5  6  2  0  0  0  0
  5  7  1  0  0  0  0
  7  8  1  0  0  0  0
  7  9  1  0  0  0  0
  9 10  1  0  0  0  0
  9 11  1  0  0  0  0
  9 16  1  0  0  0  0
 11 12  1  0  0  0  0
 11 13  1  0  0  0  0
 11 14  1  0  0  0  0
 14 15  1  0  0  0  0
 16 17  2  0  0  0  0
 16 18  1  0  0  0  0
 18 19  1  0  0  0  0
 18 20  1  0  0  0  0
 20 21  1  0  0  0  0
 20 22  1  0  0  0  0
 20 23  1  0  0  0  0
M  END
$$$$

  -OEChem-01062216093D

 23 22  0     1  0  0  0  0  0999 V2000
   -2.7786   -3.6739    1.0154 H   0  0  0  0  0  0  0  0  0  0  0  0
   -2.6886   -2.6232    0.7247 C   0  0  0  0  0  0  0  0  0  0  0  0
   -3.3692   -2.0297    1.3399 H   0  0  0  0  0  0  0  0  0  0  0  0
   -2.9758   -2.5247   -0.3253 H   0  0  0  0  0  0  0  0  0  0  0  0
   -1.2618   -2.1450    0.9194 C   0  0  0  0  0  0  0  0  0  0  0  0
   -0.4326   -2.9250    1.3568 O   0  0  0  0  0  0  0  0  0  0  0  0
   -0.9434   -0.8444    0.5746 N   0  0  0  0  0  0  0  0  0  0  0  0
   -1.7028   -0.3367    0.1272 H   0  0  0  0  0  0  0  0  0  0  0  0
    0.3753   -0.1597    0.5515 C   0  0  1  0  0  0  0  0  0  0  0  0
    0.1591    0.9085    0.6493 H   0  0  0  0  0  0  0  0  0  0  0  0
    1.3634   -0.4609    1.7015 C   0  0  0  0  0  0  0  0  0  0  0  0
    2.2218    0.2146    1.6251 H   0  0  0  0  0  0  0  0  0  0  0  0
    0.8662   -0.2536    2.6545 H   0  0  0  0  0  0  0  0  0  0  0  0
    1.8394   -1.8085    1.7164 O   0  0  0  0  0  0  0  0  0  0  0  0
    1.0546   -2.4201    1.7159 H   0  0  0  0  0  0  0  0  0  0  0  0
    1.0513   -0.3173   -0.8241 C   0  0  0  0  0  0  0  0  0  0  0  0
    0.7268    0.4421   -1.7284 O   0  0  0  0  0  0  0  0  0  0  0  0
    1.8891   -1.3794   -1.1002 N   0  0  0  0  0  0  0  0  0  0  0  0
    2.1551   -1.9588   -0.3015 H   0  0  0  0  0  0  0  0  0  0  0  0
    2.5187   -1.6074   -2.3935 C   0  0  0  0  0  0  0  0  0  0  0  0
    3.1527   -0.7573   -2.6663 H   0  0  0  0  0  0  0  0  0  0  0  0
    3.1414   -2.5064   -2.3562 H   0  0  0  0  0  0  0  0  0  0  0  0
    1.7594   -1.7457   -3.1701 H   0  0  0  0  0  0  0  0  0  0  0  0
  1  2  1  0  0  0  0
  2  3  1  0  0  0  0
  2  4  1  0  0  0  0
  2  5  1  0  0  0  0
  5  6  2  0  0  0  0
  5  7  1  0  0  0  0
  7  8  1  0  0  0  0
  7  9  1  0  0  0  0
  9 10  1  0  0  0  0
  9 11  1  0  0  0  0
  9 16  1  0  0  0  0
 11 12  1  0  0  0  0
 11 13  1  0  0  0  0
 11 14  1  0  0  0  0
 14 15  1  0  0  0  0
 16 17  2  0  0  0  0
 16 18  1  0  0  0  0
 18 19  1  0  0  0  0
 18 20  1  0  0  0  0
 20 21  1  0  0  0  0
 20 22  1  0  0  0  0
 20 23  1  0  0  0  0
M  END
$$$$

  -OEChem-01062216093D

 23 22  0     1  0  0  0  0  0999 V2000
   -2.8236   -3.6507    1.0567 H   0  0  0  0  0  0  0  0  0  0  0  0
   -2.7582   -2.5819    0.8337 C   0  0  0  0  0  0  0  0  0  0  0  0
   -3.1506   -2.0218    1.6858 H   0  0  0  0  0  0  0  0  0  0  0  0
   -3.3671   -2.3683   -0.0481 H   0  0  0  0  0  0  0  0  0  0  0  0
   -1.3153   -2.1911    0.5745 C   0  0  0  0  0  0  0  0  0  0  0  0
   -0.4819   -3.0682    0.4332 O   0  0  0  0  0  0  0  0  0  0  0  0
   -1.0140   -0.8687    0.3132 N   0  0  0  0  0  0  0  0  0  0  0  0
   -1.8172   -0.2480    0.3110 H   0  0  0  0  0  0  0  0  0  0  0  0
    0.3107   -0.2146    0.4376 C   0  0  1  0  0  0  0  0  0  0  0  0
    0.0900    0.8520    0.5420 H   0  0  0  0  0  0  0  0  0  0  0  0
    1.1837   -0.5315    1.6730 C   0  0  0  0  0  0  0  0  0  0  0  0
    2.0483    0.1406    1.6720 H   0  0  0  0  0  0  0  0  0  0  0  0
    0.5984   -0.3130    2.5717 H   0  0  0  0  0  0  0  0  0  0  0  0
    1.6567   -1.8765    1.7581 O   0  0  0  0  0  0  0  0  0  0  0  0
    2.1400   -2.0327    2.5869 H   0  0  0  0  0  0  0  0  0  0  0  0
    1.0990   -0.3174   -0.8766 C   0  0  0  0  0  0  0  0  0  0  0  0
    1.1985    0.6568   -1.6134 O   0  0  0  0  0  0  0  0  0  0  0  0
    1.6703   -1.5217   -1.2303 N   0  0  0  0  0  0  0  0  0  0  0  0
    1.4429   -2.3078   -0.6141 H   0  0  0  0  0  0  0  0  0  0  0  0
    2.3149   -1.7739   -2.5098 C   0  0  0  0  0  0  0  0  0  0  0  0
    3.1450   -1.0771   -2.6647 H   0  0  0  0  0  0  0  0  0  0  0  0
    2.7108   -2.7936   -2.5367 H   0  0  0  0  0  0  0  0  0  0  0  0
    1.5973   -1.6573   -3.3283 H   0  0  0  0  0  0  0  0  0  0  0  0
  1  2  1  0  0  0  0
  2  3  1  0  0  0  0
  2  4  1  0  0  0  0
  2  5  1  0  0  0  0
  5  6  2  0  0  0  0
  5  7  1  0  0  0  0
  7  8  1  0  0  0  0
  7  9  1  0  0  0  0
  9 10  1  0  0  0  0
  9 11  1  0  0  0  0
  9 16  1  0  0  0  0
 11 12  1  0  0  0  0
 11 13  1  0  0  0  0
 11 14  1  0  0  0  0
 14 15  1  0  0  0  0
 16 17  2  0  0  0  0
 16 18  1  0  0  0  0
 18 19  1  0  0  0  0
 18 20  1  0  0  0  0
 20 21  1  0  0  0  0
 20 22  1  0  0  0  0
 20 23  1  0  0  0  0
M  END
$$$$

  -OEChem-01062216093D

 23 22  0     1  0  0  0  0  0999 V2000
   -2.8392   -3.6365    1.1670 H   0  0  0  0  0  0  0  0  0  0  0  0
   -2.7796   -2.5670    0.9459 C   0  0  0  0  0  0  0  0  0  0  0  0
   -3.0932   -2.0088    1.8310 H   0  0  0  0  0  0  0  0  0  0  0  0
   -3.4565   -2.3396    0.1190 H   0  0  0  0  0  0  0  0  0  0  0  0
   -1.3587   -2.1913    0.5709 C   0  0  0  0  0  0  0  0  0  0  0  0
   -0.5540   -3.0757    0.3350 O   0  0  0  0  0  0  0  0  0  0  0  0
   -1.0625   -0.8715    0.2911 N   0  0  0  0  0  0  0  0  0  0  0  0
   -1.8582   -0.2465    0.3714 H   0  0  0  0  0  0  0  0  0  0  0  0
    0.2698   -0.2261    0.3921 C   0  0  1  0  0  0  0  0  0  0  0  0
    0.0570    0.8421    0.4948 H   0  0  0  0  0  0  0  0  0  0  0  0
    1.1524   -0.5518    1.6161 C   0  0  0  0  0  0  0  0  0  0  0  0
    2.0261    0.1084    1.6039 H   0  0  0  0  0  0  0  0  0  0  0  0
    0.5836   -0.3283    2.5241 H   0  0  0  0  0  0  0  0  0  0  0  0
    1.6048   -1.9040    1.6841 O   0  0  0  0  0  0  0  0  0  0  0  0
    2.1373   -2.0631    2.4814 H   0  0  0  0  0  0  0  0  0  0  0  0
    1.0578   -0.3352   -0.9218 C   0  0  0  0  0  0  0  0  0  0  0  0
    1.4220    0.6770   -1.5086 O   0  0  0  0  0  0  0  0  0  0  0  0
    1.3579   -1.5820   -1.4291 N   0  0  0  0  0  0  0  0  0  0  0  0
    1.0202   -2.3776   -0.8777 H   0  0  0  0  0  0  0  0  0  0  0  0
    2.1105   -1.8138   -2.6519 C   0  0  0  0  0  0  0  0  0  0  0  0
    3.1007   -1.3517   -2.5851 H   0  0  0  0  0  0  0  0  0  0  0  0
    2.2402   -2.8878   -2.8152 H   0  0  0  0  0  0  0  0  0  0  0  0
    1.5807   -1.3933   -3.5125 H   0  0  0  0  0  0  0  0  0  0  0  0
  1  2  1  0  0  0  0
  2  3  1  0  0  0  0
  2  4  1  0  0  0  0
  2  5  1  0  0  0  0
  5  6  2  0  0  0  0
  5  7  1  0  0  0  0
  7  8  1  0  0  0  0
  7  9  1  0  0  0  0
  9 10  1  0  0  0  0
  9 11  1  0  0  0  0
  9 16  1  0  0  0  0
 11 12  1  0  0  0  0
 11 13  1  0  0  0  0
 11 14  1  0  0  0  0
 14 15  1  0  0  0  0
 16 17  2  0  0  0  0
 16 18  1  0  0  0  0
 18 19  1  0  0  0  0
 18 20  1  0  0  0  0
 20 21  1  0  0  0  0
 20 22  1  0  0  0  0
 20 23  1  0  0  0  0
M  END
$$$$

  -OEChem-01062216093D

 23 22  0     1  0  0  0  0  0999 V2000
   -2.8513   -3.6361    1.2309 H   0  0  0  0  0  0  0  0  0  0  0  0
   -2.7923   -2.5612    1.0369 C   0  0  0  0  0  0  0  0  0  0  0  0
   -3.0373   -2.0258    1.9573 H   0  0  0  0  0  0  0  0  0  0  0  0
   -3.5210   -2.3017    0.2650 H   0  0  0  0  0  0  0  0  0  0  0  0
   -1.3948   -2.1914    0.5763 C   0  0  0  0  0  0  0  0  0  0  0  0
   -0.6180   -3.0774    0.2646 O   0  0  0  0  0  0  0  0  0  0  0  0
   -1.1064   -0.8729    0.2837 N   0  0  0  0  0  0  0  0  0  0  0  0
   -1.8953   -0.2482    0.4161 H   0  0  0  0  0  0  0  0  0  0  0  0
    0.2292   -0.2275    0.3581 C   0  0  1  0  0  0  0  0  0  0  0  0
    0.0199    0.8410    0.4651 H   0  0  0  0  0  0  0  0  0  0  0  0
    1.1275   -0.5632    1.5664 C   0  0  0  0  0  0  0  0  0  0  0  0
    2.0058    0.0908    1.5444 H   0  0  0  0  0  0  0  0  0  0  0  0
    0.5754   -0.3422    2.4854 H   0  0  0  0  0  0  0  0  0  0  0  0
    1.5700   -1.9192    1.6134 O   0  0  0  0  0  0  0  0  0  0  0  0
    2.1440   -2.0806    2.3809 H   0  0  0  0  0  0  0  0  0  0  0  0
    1.0126   -0.3324   -0.9600 C   0  0  0  0  0  0  0  0  0  0  0  0
    1.5973    0.6490   -1.4037 O   0  0  0  0  0  0  0  0  0  0  0  0
    1.0557   -1.5341   -1.6368 N   0  0  0  0  0  0  0  0  0  0  0  0
    0.6558   -2.3314   -1.1314 H   0  0  0  0  0  0  0  0  0  0  0  0
    1.8852   -1.7746   -2.8077 C   0  0  0  0  0  0  0  0  0  0  0  0
    2.9445   -1.6622   -2.5550 H   0  0  0  0  0  0  0  0  0  0  0  0
    1.7221   -2.7901   -3.1810 H   0  0  0  0  0  0  0  0  0  0  0  0
    1.6349   -1.0690   -3.6067 H   0  0  0  0  0  0  0  0  0  0  0  0
  1  2  1  0  0  0  0
  2  3  1  0  0  0  0
  2  4  1  0  0  0  0
  2  5  1  0  0  0  0
  5  6  2  0  0  0  0
  5  7  1  0  0  0  0
  7  8  1  0  0  0  0
  7  9  1  0  0  0  0
  9 10  1  0  0  0  0
  9 11  1  0  0  0  0
  9 16  1  0  0  0  0
 11 12  1  0  0  0  0
 11 13  1  0  0  0  0
 11 14  1  0  0  0  0
 14 15  1  0  0  0  0
 16 17  2  0  0  0  0
 16 18  1  0  0  0  0
 18 19  1  0  0  0  0
 18 20  1  0  0  0  0
 20 21  1  0  0  0  0
 20 22  1  0  0  0  0
 20 23  1  0  0  0  0
M  END
$$$$

  -OEChem-01062216093D

 23 22  0     1  0  0  0  0  0999 V2000
   -2.8117   -3.6325    1.3118 H   0  0  0  0  0  0  0  0  0  0  0  0
   -2.7666   -2.5553    1.1277 C   0  0  0  0  0  0  0  0  0  0  0  0
   -2.9262   -2.0322    2.0734 H   0  0  0  0  0  0  0  0  0  0  0  0
   -3.5605   -2.2835    0.4279 H   0  0  0  0  0  0  0  0  0  0  0  0
   -1.4141   -2.1831    0.5501 C   0  0  0  0  0  0  0  0  0  0  0  0
   -0.6817   -3.0607    0.1262 O   0  0  0  0  0  0  0  0  0  0  0  0
   -1.1387   -0.8636    0.2530 N   0  0  0  0  0  0  0  0  0  0  0  0
   -1.9143   -0.2416    0.4571 H   0  0  0  0  0  0  0  0  0  0  0  0
    0.2021   -0.2280    0.3304 C   0  0  1  0  0  0  0  0  0  0  0  0
    0.0005    0.8421    0.4346 H   0  0  0  0  0  0  0  0  0  0  0  0
    1.0778   -0.5780    1.5508 C   0  0  0  0  0  0  0  0  0  0  0  0
    1.9675    0.0608    1.5418 H   0  0  0  0  0  0  0  0  0  0  0  0
    0.5188   -0.3505    2.4639 H   0  0  0  0  0  0  0  0  0  0  0  0
    1.4947   -1.9424    1.5945 O   0  0  0  0  0  0  0  0  0  0  0  0
    2.0948   -2.1081    2.3409 H   0  0  0  0  0  0  0  0  0  0  0  0
    1.0062   -0.3281   -0.9771 C   0  0  0  0  0  0  0  0  0  0  0  0
    1.7781    0.5731   -1.2842 O   0  0  0  0  0  0  0  0  0  0  0  0
    0.8226   -1.4034   -1.8234 N   0  0  0  0  0  0  0  0  0  0  0  0
    0.3239   -2.1925   -1.4011 H   0  0  0  0  0  0  0  0  0  0  0  0
    1.6533   -1.6457   -2.9937 C   0  0  0  0  0  0  0  0  0  0  0  0
    2.6919   -1.8211   -2.6949 H   0  0  0  0  0  0  0  0  0  0  0  0
    1.2927   -2.5257   -3.5347 H   0  0  0  0  0  0  0  0  0  0  0  0
    1.6207   -0.7872   -3.6725 H   0  0  0  0  0  0  0  0  0  0  0  0
  1  2  1  0  0  0  0
  2  3  1  0  0  0  0
  2  4  1  0  0  0  0
  2  5  1  0  0  0  0
  5  6  2  0  0  0  0
  5  7  1  0  0  0  0
  7  8  1  0  0  0  0
  7  9  1  0  0  0  0
  9 10  1  0  0  0  0
  9 11  1  0  0  0  0
  9 16  1  0  0  0  0
 11 12  1  0  0  0  0
 11 13  1  0  0  0  0
 11 14  1  0  0  0  0
 14 15  1  0  0  0  0
 16 17  2  0  0  0  0
 16 18  1  0  0  0  0
 18 19  1  0  0  0  0
 18 20  1  0  0  0  0
 20 21  1  0  0  0  0
 20 22  1  0  0  0  0
 20 23  1  0  0  0  0
M  END
$$$$

  -OEChem-01062216093D

 23 22  0     1  0  0  0  0  0999 V2000
   -2.7718   -3.6394    1.3333 H   0  0  0  0  0  0  0  0  0  0  0  0
   -2.7296   -2.5571    1.1819 C   0  0  0  0  0  0  0  0  0  0  0  0
   -2.8219   -2.0643    2.1526 H   0  0  0  0  0  0  0  0  0  0  0  0
   -3.5648   -2.2570    0.5447 H   0  0  0  0  0  0  0  0  0  0  0  0
   -1.4148   -2.1751    0.5294 C   0  0  0  0  0  0  0  0  0  0  0  0
   -0.7203   -3.0381    0.0205 O   0  0  0  0  0  0  0  0  0  0  0  0
   -1.1532   -0.8545    0.2298 N   0  0  0  0  0  0  0  0  0  0  0  0
   -1.9200   -0.2381    0.4786 H   0  0  0  0  0  0  0  0  0  0  0  0
    0.1900   -0.2256    0.3177 C   0  0  1  0  0  0  0  0  0  0  0  0
   -0.0053    0.8458    0.4170 H   0  0  0  0  0  0  0  0  0  0  0  0
    1.0392   -0.5841    1.5553 C   0  0  0  0  0  0  0  0  0  0  0  0
    1.9367    0.0434    1.5622 H   0  0  0  0  0  0  0  0  0  0  0  0
    0.4679   -0.3493    2.4589 H   0  0  0  0  0  0  0  0  0  0  0  0
    1.4377   -1.9542    1.6042 O   0  0  0  0  0  0  0  0  0  0  0  0
    2.0572   -2.1187    2.3349 H   0  0  0  0  0  0  0  0  0  0  0  0
    1.0092   -0.3278   -0.9816 C   0  0  0  0  0  0  0  0  0  0  0  0
    1.9279    0.4587   -1.1810 O   0  0  0  0  0  0  0  0  0  0  0  0
    0.6304   -1.2122   -1.9726 N   0  0  0  0  0  0  0  0  0  0  0  0
    0.0298   -1.9703   -1.6388 H   0  0  0  0  0  0  0  0  0  0  0  0
    1.4238   -1.4376   -3.1723 C   0  0  0  0  0  0  0  0  0  0  0  0
    2.4040   -1.8491   -2.9102 H   0  0  0  0  0  0  0  0  0  0  0  0
    0.9135   -2.1453   -3.8325 H   0  0  0  0  0  0  0  0  0  0  0  0
    1.5689   -0.5004   -3.7196 H   0  0  0  0  0  0  0  0  0  0  0  0
  1  2  1  0  0  0  0
  2  3  1  0  0  0  0
  2  4  1  0  0  0  0
  2  5  1  0  0  0  0
  5  6  2  0  0  0  0
  5  7  1  0  0  0  0
  7  8  1  0  0  0  0
  7  9  1  0  0  0  0
  9 10  1  0  0  0  0
  9 11  1  0  0  0  0
  9 16  1  0  0  0  0
 11 12  1  0  0  0  0
 11 13  1  0  0  0  0
 11 14  1  0  0  0  0
 14 15  1  0  0  0  0
 16 17  2  0  0  0  0
 16 18  1  0  0  0  0
 18 19  1  0  0  0  0
 18 20  1  0  0  0  0
 20 21  1  0  0  0  0
 20 22  1  0  0  0  0
 20 23  1  0  0  0  0
M  END
$$$$

  -OEChem-01062216093D

 23 22  0     1  0  0  0  0  0999 V2000
   -2.7395   -3.6476    1.3510 H   0  0  0  0  0  0  0  0  0  0  0  0
   -2.7006   -2.5627    1.2177 C   0  0  0  0  0  0  0  0  0  0  0  0
   -2.7467   -2.0879    2.2005 H   0  0  0  0  0  0  0  0  0  0  0  0
   -3.5633   -2.2487    0.6254 H   0  0  0  0  0  0  0  0  0  0  0  0
   -1.4147   -2.1730    0.5136 C   0  0  0  0  0  0  0  0  0  0  0  0
   -0.7463   -3.0266   -0.0425 O   0  0  0  0  0  0  0  0  0  0  0  0
   -1.1618   -0.8512    0.2147 N   0  0  0  0  0  0  0  0  0  0  0  0
   -1.9211   -0.2393    0.4959 H   0  0  0  0  0  0  0  0  0  0  0  0
    0.1842   -0.2292    0.3108 C   0  0  1  0  0  0  0  0  0  0  0  0
   -0.0050    0.8437    0.4064 H   0  0  0  0  0  0  0  0  0  0  0  0
    1.0130   -0.5922    1.5624 C   0  0  0  0  0  0  0  0  0  0  0  0
    1.9162    0.0269    1.5823 H   0  0  0  0  0  0  0  0  0  0  0  0
    0.4311   -0.3505    2.4573 H   0  0  0  0  0  0  0  0  0  0  0  0
    1.3974   -1.9662    1.6199 O   0  0  0  0  0  0  0  0  0  0  0  0
    2.0421   -2.1253    2.3297 H   0  0  0  0  0  0  0  0  0  0  0  0
    1.0121   -0.3316   -0.9846 C   0  0  0  0  0  0  0  0  0  0  0  0
    2.0548    0.3045   -1.0901 O   0  0  0  0  0  0  0  0  0  0  0  0
    0.4847   -0.9644   -2.0940 N   0  0  0  0  0  0  0  0  0  0  0  0
   -0.2349   -1.6512   -1.8658 H   0  0  0  0  0  0  0  0  0  0  0  0
    1.2444   -1.1513   -3.3224 C   0  0  0  0  0  0  0  0  0  0  0  0
    2.1334   -1.7620   -3.1329 H   0  0  0  0  0  0  0  0  0  0  0  0
    0.6282   -1.6558   -4.0726 H   0  0  0  0  0  0  0  0  0  0  0  0
    1.5600   -0.1853   -3.7303 H   0  0  0  0  0  0  0  0  0  0  0  0
  1  2  1  0  0  0  0
  2  3  1  0  0  0  0
  2  4  1  0  0  0  0
  2  5  1  0  0  0  0
  5  6  2  0  0  0  0
  5  7  1  0  0  0  0
  7  8  1  0  0  0  0
  7  9  1  0  0  0  0
  9 10  1  0  0  0  0
  9 11  1  0  0  0  0
  9 16  1  0  0  0  0
 11 12  1  0  0  0  0
 11 13  1  0  0  0  0
 11 14  1  0  0  0  0
 14 15  1  0  0  0  0
 16 17  2  0  0  0  0
 16 18  1  0  0  0  0
 18 19  1  0  0  0  0
 18 20  1  0  0  0  0
 20 21  1  0  0  0  0
 20 22  1  0  0  0  0
 20 23  1  0  0  0  0
M  END
$$$$

  -OEChem-01062216093D

 23 22  0     1  0  0  0  0  0999 V2000
   -2.7152   -3.6580    1.3696 H   0  0  0  0  0  0  0  0  0  0  0  0
   -2.6877   -2.5749    1.2194 C   0  0  0  0  0  0  0  0  0  0  0  0
   -2.7380   -2.0856    2.1949 H   0  0  0  0  0  0  0  0  0  0  0  0
   -3.5537   -2.2790    0.6228 H   0  0  0  0  0  0  0  0  0  0  0  0
   -1.4065   -2.1828    0.5081 C   0  0  0  0  0  0  0  0  0  0  0  0
   -0.7360   -3.0373   -0.0426 O   0  0  0  0  0  0  0  0  0  0  0  0
   -1.1572   -0.8583    0.2141 N   0  0  0  0  0  0  0  0  0  0  0  0
   -1.9127   -0.2503    0.5133 H   0  0  0  0  0  0  0  0  0  0  0  0
    0.1902   -0.2393    0.3098 C   0  0  1  0  0  0  0  0  0  0  0  0
    0.0018    0.8334    0.4036 H   0  0  0  0  0  0  0  0  0  0  0  0
    1.0083   -0.5973    1.5717 C   0  0  0  0  0  0  0  0  0  0  0  0
    1.9141    0.0176    1.5954 H   0  0  0  0  0  0  0  0  0  0  0  0
    0.4214   -0.3455    2.4604 H   0  0  0  0  0  0  0  0  0  0  0  0
    1.3853   -1.9726    1.6435 O   0  0  0  0  0  0  0  0  0  0  0  0
    2.0539   -2.1222    2.3327 H   0  0  0  0  0  0  0  0  0  0  0  0
    1.0160   -0.3356   -0.9889 C   0  0  0  0  0  0  0  0  0  0  0  0
    2.1557    0.1150   -1.0266 O   0  0  0  0  0  0  0  0  0  0  0  0
    0.3893   -0.6724   -2.1740 N   0  0  0  0  0  0  0  0  0  0  0  0
   -0.4575   -1.2236   -2.0486 H   0  0  0  0  0  0  0  0  0  0  0  0
    1.1170   -0.8108   -3.4287 C   0  0  0  0  0  0  0  0  0  0  0  0
    1.8749   -1.5969   -3.3463 H   0  0  0  0  0  0  0  0  0  0  0  0
    0.4280   -1.0746   -4.2365 H   0  0  0  0  0  0  0  0  0  0  0  0
    1.6117    0.1298   -3.6928 H   0  0  0  0  0  0  0  0  0  0  0  0
  1  2  1  0  0  0  0
  2  3  1  0  0  0  0
  2  4  1  0  0  0  0
  2  5  1  0  0  0  0
  5  6  2  0  0  0  0
  5  7  1  0  0  0  0
  7  8  1  0  0  0  0
  7  9  1  0  0  0  0
  9 10  1  0  0  0  0
  9 11  1  0  0  0  0
  9 16  1  0  0  0  0
 11 12  1  0  0  0  0
 11 13  1  0  0  0  0
 11 14  1  0  0  0  0
 14 15  1  0  0  0  0
 16 17  2  0  0  0  0
 16 18  1  0  0  0  0
 18 19  1  0  0  0  0
 18 20  1  0  0  0  0
 20 21  1  0  0  0  0
 20 22  1  0  0  0  0
 20 23  1  0  0  0  0
M  END
$$$$

  -OEChem-01062216093D

 23 22  0     1  0  0  0  0  0999 V2000
   -2.7219   -3.6764    1.3211 H   0  0  0  0  0  0  0  0  0  0  0  0
   -2.6821   -2.5905    1.1962 C   0  0  0  0  0  0  0  0  0  0  0  0
   -2.7322   -2.1237    2.1827 H   0  0  0  0  0  0  0  0  0  0  0  0
   -3.5424   -2.2722    0.6027 H   0  0  0  0  0  0  0  0  0  0  0  0
   -1.3929   -2.1955    0.5009 C   0  0  0  0  0  0  0  0  0  0  0  0
   -0.7065   -3.0524   -0.0251 O   0  0  0  0  0  0  0  0  0  0  0  0
   -1.1461   -0.8684    0.2134 N   0  0  0  0  0  0  0  0  0  0  0  0
   -1.9004   -0.2648    0.5241 H   0  0  0  0  0  0  0  0  0  0  0  0
    0.2014   -0.2510    0.3103 C   0  0  1  0  0  0  0  0  0  0  0  0
    0.0119    0.8217    0.4017 H   0  0  0  0  0  0  0  0  0  0  0  0
    1.0101   -0.5975    1.5828 C   0  0  0  0  0  0  0  0  0  0  0  0
    1.9172    0.0159    1.6049 H   0  0  0  0  0  0  0  0  0  0  0  0
    0.4182   -0.3332    2.4646 H   0  0  0  0  0  0  0  0  0  0  0  0
    1.3850   -1.9719    1.6768 O   0  0  0  0  0  0  0  0  0  0  0  0
    2.0870   -2.1045    2.3353 H   0  0  0  0  0  0  0  0  0  0  0  0
    1.0212   -0.3427   -0.9936 C   0  0  0  0  0  0  0  0  0  0  0  0
    2.2251   -0.1111   -0.9925 O   0  0  0  0  0  0  0  0  0  0  0  0
    0.3556   -0.3613   -2.2058 N   0  0  0  0  0  0  0  0  0  0  0  0
   -0.5939   -0.7208   -2.1564 H   0  0  0  0  0  0  0  0  0  0  0  0
    1.0573   -0.4473   -3.4805 C   0  0  0  0  0  0  0  0  0  0  0  0
    1.6553   -1.3637   -3.5269 H   0  0  0  0  0  0  0  0  0  0  0  0
    0.3398   -0.4581   -4.3063 H   0  0  0  0  0  0  0  0  0  0  0  0
    1.7207    0.4137   -3.6134 H   0  0  0  0  0  0  0  0  0  0  0  0
  1  2  1  0  0  0  0
  2  3  1  0  0  0  0
  2  4  1  0  0  0  0
  2  5  1  0  0  0  0
  5  6  2  0  0  0  0
  5  7  1  0  0  0  0
  7  8  1  0  0  0  0
  7  9  1  0  0  0  0
  9 10  1  0  0  0  0
  9 11  1  0  0  0  0
  9 16  1  0  0  0  0
 11 12  1  0  0  0  0
 11 13  1  0  0  0  0
 11 14  1  0  0  0  0
 14 15  1  0  0  0  0
 16 17  2  0  0  0  0
 16 18  1  0  0  0  0
 18 19  1  0  0  0  0
 18 20  1  0  0  0  0
 20 21  1  0  0  0  0
 20 22  1  0  0  0  0
 20 23  1  0  0  0  0
M  END
$$$$

  -OEChem-01062216093D

 23 22  0     1  0  0  0  0  0999 V2000
   -2.7188   -3.6819    1.3295 H   0  0  0  0  0  0  0  0  0  0  0  0
   -2.6880   -2.5991    1.1775 C   0  0  0  0  0  0  0  0  0  0  0  0
   -2.7634   -2.1080    2.1504 H   0  0  0  0  0  0  0  0  0  0  0  0
   -3.5390   -2.3054    0.5585 H   0  0  0  0  0  0  0  0  0  0  0  0
   -1.3892   -2.2073    0.4980 C   0  0  0  0  0  0  0  0  0  0  0  0
   -0.6925   -3.0691   -0.0055 O   0  0  0  0  0  0  0  0  0  0  0  0
   -1.1404   -0.8799    0.2103 N   0  0  0  0  0  0  0  0  0  0  0  0
   -1.8948   -0.2767    0.5206 H   0  0  0  0  0  0  0  0  0  0  0  0
    0.2072   -0.2650    0.3066 C   0  0  1  0  0  0  0  0  0  0  0  0
    0.0186    0.8082    0.3928 H   0  0  0  0  0  0  0  0  0  0  0  0
    1.0076   -0.5989    1.5883 C   0  0  0  0  0  0  0  0  0  0  0  0
    1.9163    0.0121    1.6039 H   0  0  0  0  0  0  0  0  0  0  0  0
    0.4137   -0.3201    2.4643 H   0  0  0  0  0  0  0  0  0  0  0  0
    1.3795   -1.9721    1.7056 O   0  0  0  0  0  0  0  0  0  0  0  0
    2.1501   -2.0825    2.2869 H   0  0  0  0  0  0  0  0  0  0  0  0
    1.0238   -0.3596   -0.9998 C   0  0  0  0  0  0  0  0  0  0  0  0
    2.2495   -0.3636   -0.9833 O   0  0  0  0  0  0  0  0  0  0  0  0
    0.3928   -0.0638   -2.1953 N   0  0  0  0  0  0  0  0  0  0  0  0
   -0.6123   -0.2095   -2.1968 H   0  0  0  0  0  0  0  0  0  0  0  0
    1.0924   -0.0786   -3.4746 C   0  0  0  0  0  0  0  0  0  0  0  0
    1.5199   -1.0686   -3.6655 H   0  0  0  0  0  0  0  0  0  0  0  0
    0.4004    0.1636   -4.2867 H   0  0  0  0  0  0  0  0  0  0  0  0
    1.9001    0.6608   -3.4800 H   0  0  0  0  0  0  0  0  0  0  0  0
  1  2  1  0  0  0  0
  2  3  1  0  0  0  0
  2  4  1  0  0  0  0
  2  5  1  0  0  0  0
  5  6  2  0  0  0  0
  5  7  1  0  0  0  0
  7  8  1  0  0  0  0
  7  9  1  0  0  0  0
  9 10  1  0  0  0  0
  9 11  1  0  0  0  0
  9 16  1  0  0  0  0
 11 12  1  0  0  0  0
 11 13  1  0  0  0  0
 11 14  1  0  0  0  0
 14 15  1  0  0  0  0
 16 17  2  0  0  0  0
 16 18  1  0  0  0  0
 18 19  1  0  0  0  0
 18 20  1  0  0  0  0
 20 21  1  0  0  0  0
 20 22  1  0  0  0  0
 20 23  1  0  0  0  0
M  END
$$$$

  -OEChem-01062216093D

 23 22  0     1  0  0  0  0  0999 V2000
   -2.6366   -3.7560    1.2543 H   0  0  0  0  0  0  0  0  0  0  0  0
   -2.6411   -2.6682    1.1402 C   0  0  0  0  0  0  0  0  0  0  0  0
   -2.8103   -2.2149    2.1199 H   0  0  0  0  0  0  0  0  0  0  0  0
   -3.4556   -2.3886    0.4679 H   0  0  0  0  0  0  0  0  0  0  0  0
   -1.3130   -2.2006    0.5755 C   0  0  0  0  0  0  0  0  0  0  0  0
   -0.4846   -3.0183    0.2139 O   0  0  0  0  0  0  0  0  0  0  0  0
   -1.1221   -0.8683    0.2649 N   0  0  0  0  0  0  0  0  0  0  0  0
   -1.9191   -0.2934    0.5189 H   0  0  0  0  0  0  0  0  0  0  0  0
    0.1959   -0.1998    0.3775 C   0  0  1  0  0  0  0  0  0  0  0  0
   -0.0355    0.8669    0.4406 H   0  0  0  0  0  0  0  0  0  0  0  0
    0.9895   -0.4648    1.6792 C   0  0  0  0  0  0  0  0  0  0  0  0
    1.8720    0.1835    1.6861 H   0  0  0  0  0  0  0  0  0  0  0  0
    0.3738   -0.1854    2.5397 H   0  0  0  0  0  0  0  0  0  0  0  0
    1.4230   -1.8128    1.8489 O   0  0  0  0  0  0  0  0  0  0  0  0
    1.6643   -2.2006    0.9821 H   0  0  0  0  0  0  0  0  0  0  0  0
    1.0283   -0.2966   -0.9179 C   0  0  0  0  0  0  0  0  0  0  0  0
    2.1778   -0.7175   -0.9002 O   0  0  0  0  0  0  0  0  0  0  0  0
    0.5307    0.2377   -2.0933 N   0  0  0  0  0  0  0  0  0  0  0  0
   -0.4617    0.4499   -2.1106 H   0  0  0  0  0  0  0  0  0  0  0  0
    1.2478    0.1557   -3.3605 C   0  0  0  0  0  0  0  0  0  0  0  0
    1.4033   -0.8902   -3.6459 H   0  0  0  0  0  0  0  0  0  0  0  0
    0.6762    0.6501   -4.1517 H   0  0  0  0  0  0  0  0  0  0  0  0
    2.2229    0.6481   -3.2820 H   0  0  0  0  0  0  0  0  0  0  0  0
  1  2  1  0  0  0  0
  2  3  1  0  0  0  0
  2  4  1  0  0  0  0
  2  5  1  0  0  0  0
  5  6  2  0  0  0  0
  5  7  1  0  0  0  0
  7  8  1  0  0  0  0
  7  9  1  0  0  0  0
  9 10  1  0  0  0  0
  9 11  1  0  0  0  0
  9 16  1  0  0  0  0
 11 12  1  0  0  0  0
 11 13  1  0  0  0  0
 11 14  1  0  0  0  0
 14 15  1  0  0  0  0
 16 17  2  0  0  0  0
 16 18  1  0  0  0  0
 18 19  1  0  0  0  0
 18 20  1  0  0  0  0
 20 21  1  0  0  0  0
 20 22  1  0  0  0  0
 20 23  1  0  0  0  0
M  END
$$$$

  -OEChem-01062216093D

 23 22  0     1  0  0  0  0  0999 V2000
   -2.7313   -3.7399    1.0735 H   0  0  0  0  0  0  0  0  0  0  0  0
   -2.6859   -2.6782    0.8140 C   0  0  0  0  0  0  0  0  0  0  0  0
   -3.2501   -2.1113    1.5584 H   0  0  0  0  0  0  0  0  0  0  0  0
   -3.1444   -2.5385   -0.1679 H   0  0  0  0  0  0  0  0  0  0  0  0
   -1.2432   -2.2088    0.7867 C   0  0  0  0  0  0  0  0  0  0  0  0
   -0.3580   -3.0088    1.0270 O   0  0  0  0  0  0  0  0  0  0  0  0
   -0.9728   -0.8941    0.4526 N   0  0  0  0  0  0  0  0  0  0  0  0
   -1.7985   -0.3325    0.2702 H   0  0  0  0  0  0  0  0  0  0  0  0
    0.3351   -0.1852    0.4528 C   0  0  1  0  0  0  0  0  0  0  0  0
    0.0866    0.8760    0.5341 H   0  0  0  0  0  0  0  0  0  0  0  0
    1.2530   -0.4233    1.6770 C   0  0  0  0  0  0  0  0  0  0  0  0
    2.1047    0.2627    1.6252 H   0  0  0  0  0  0  0  0  0  0  0  0
    0.6880   -0.1759    2.5810 H   0  0  0  0  0  0  0  0  0  0  0  0
    1.7532   -1.7517    1.8166 O   0  0  0  0  0  0  0  0  0  0  0  0
    1.0580   -2.4012    1.5366 H   0  0  0  0  0  0  0  0  0  0  0  0
    1.0603   -0.3011   -0.9089 C   0  0  0  0  0  0  0  0  0  0  0  0
    2.0685   -0.9698   -1.0774 O   0  0  0  0  0  0  0  0  0  0  0  0
    0.6035    0.4560   -1.9758 N   0  0  0  0  0  0  0  0  0  0  0  0
   -0.2349    1.0098   -1.8399 H   0  0  0  0  0  0  0  0  0  0  0  0
    1.2337    0.4446   -3.2917 C   0  0  0  0  0  0  0  0  0  0  0  0
    1.2165   -0.5648   -3.7165 H   0  0  0  0  0  0  0  0  0  0  0  0
    0.7010    1.1152   -3.9728 H   0  0  0  0  0  0  0  0  0  0  0  0
    2.2743    0.7792   -3.2219 H   0  0  0  0  0  0  0  0  0  0  0  0
  1  2  1  0  0  0  0
  2  3  1  0  0  0  0
  2  4  1  0  0  0  0
  2  5  1  0  0  0  0
  5  6  2  0  0  0  0
  5  7  1  0  0  0  0
  7  8  1  0  0  0  0
  7  9  1  0  0  0  0
  9 10  1  0  0  0  0
  9 11  1  0  0  0  0
  9 16  1  0  0  0  0
 11 12  1  0  0  0  0
 11 13  1  0  0  0  0
 11 14  1  0  0  0  0
 14 15  1  0  0  0  0
 16 17  2  0  0  0  0
 16 18  1  0  0  0  0
 18 19  1  0  0  0  0
 18 20  1  0  0  0  0
 20 21  1  0  0  0  0
 20 22  1  0  0  0  0
 20 23  1  0  0  0  0
M  END
$$$$

  -OEChem-01062216093D

 23 22  0     1  0  0  0  0  0999 V2000
   -2.7589   -3.6730    1.0566 H   0  0  0  0  0  0  0  0  0  0  0  0
   -2.6656   -2.6391    0.7113 C   0  0  0  0  0  0  0  0  0  0  0  0
   -3.3482   -2.0135    1.2913 H   0  0  0  0  0  0  0  0  0  0  0  0
   -2.9465   -2.5958   -0.3439 H   0  0  0  0  0  0  0  0  0  0  0  0
   -1.2379   -2.1561    0.8877 C   0  0  0  0  0  0  0  0  0  0  0  0
   -0.4059   -2.9353    1.3157 O   0  0  0  0  0  0  0  0  0  0  0  0
   -0.9376   -0.8440    0.5658 N   0  0  0  0  0  0  0  0  0  0  0  0
   -1.7181   -0.3291    0.1708 H   0  0  0  0  0  0  0  0  0  0  0  0
    0.3901   -0.1756    0.5182 C   0  0  1  0  0  0  0  0  0  0  0  0
    0.1748    0.8885    0.6446 H   0  0  0  0  0  0  0  0  0  0  0  0
    1.3949   -0.4670    1.6575 C   0  0  0  0  0  0  0  0  0  0  0  0
    2.2536    0.2048    1.5591 H   0  0  0  0  0  0  0  0  0  0  0  0
    0.9078   -0.2398    2.6110 H   0  0  0  0  0  0  0  0  0  0  0  0
    1.8756   -1.8068    1.7124 O   0  0  0  0  0  0  0  0  0  0  0  0
    1.1151   -2.4300    1.5776 H   0  0  0  0  0  0  0  0  0  0  0  0
    1.0331   -0.2933   -0.8826 C   0  0  0  0  0  0  0  0  0  0  0  0
    1.6276   -1.2944   -1.2525 O   0  0  0  0  0  0  0  0  0  0  0  0
    0.7818    0.6923   -1.8242 N   0  0  0  0  0  0  0  0  0  0  0  0
    0.2964    1.5291   -1.5184 H   0  0  0  0  0  0  0  0  0  0  0  0
    1.2992    0.6408   -3.1875 C   0  0  0  0  0  0  0  0  0  0  0  0
    0.9202   -0.2447   -3.7088 H   0  0  0  0  0  0  0  0  0  0  0  0
    0.9873    1.5290   -3.7453 H   0  0  0  0  0  0  0  0  0  0  0  0
    2.3938    0.6033   -3.1808 H   0  0  0  0  0  0  0  0  0  0  0  0
  1  2  1  0  0  0  0
  2  3  1  0  0  0  0
  2  4  1  0  0  0  0
  2  5  1  0  0  0  0
  5  6  2  0  0  0  0
  5  7  1  0  0  0  0
  7  8  1  0  0  0  0
  7  9  1  0  0  0  0
  9 10  1  0  0  0  0
  9 11  1  0  0  0  0
  9 16  1  0  0  0  0
 11 12  1  0  0  0  0
 11 13  1  0  0  0  0
 11 14  1  0  0  0  0
 14 15  1  0  0  0  0
 16 17  2  0  0  0  0
 16 18  1  0  0  0  0
 18 19  1  0  0  0  0
 18 20  1  0  0  0  0
 20 21  1  0  0  0  0
 20 22  1  0  0  0  0
 20 23  1  0  0  0  0
M  END
$$$$

  -OEChem-01062216093D

 23 22  0     1  0  0  0  0  0999 V2000
   -2.7127   -3.6935    0.9313 H   0  0  0  0  0  0  0  0  0  0  0  0
   -2.6257   -2.6487    0.6193 C   0  0  0  0  0  0  0  0  0  0  0  0
   -3.3832   -2.0612    1.1435 H   0  0  0  0  0  0  0  0  0  0  0  0
   -2.8049   -2.5899   -0.4570 H   0  0  0  0  0  0  0  0  0  0  0  0
   -1.2407   -2.1197    0.9422 C   0  0  0  0  0  0  0  0  0  0  0  0
   -0.4515   -2.8553    1.5088 O   0  0  0  0  0  0  0  0  0  0  0  0
   -0.9419   -0.8089    0.6127 N   0  0  0  0  0  0  0  0  0  0  0  0
   -1.6797   -0.3520    0.0855 H   0  0  0  0  0  0  0  0  0  0  0  0
    0.3906   -0.1495    0.5643 C   0  0  1  0  0  0  0  0  0  0  0  0
    0.1811    0.9143    0.6992 H   0  0  0  0  0  0  0  0  0  0  0  0
    1.4229   -0.4621    1.6700 C   0  0  0  0  0  0  0  0  0  0  0  0
    2.2812    0.2090    1.5634 H   0  0  0  0  0  0  0  0  0  0  0  0
    0.9629   -0.2567    2.6418 H   0  0  0  0  0  0  0  0  0  0  0  0
    1.8953   -1.8051    1.6713 O   0  0  0  0  0  0  0  0  0  0  0  0
    1.1144   -2.4165    1.6292 H   0  0  0  0  0  0  0  0  0  0  0  0
    1.0269   -0.2820   -0.8368 C   0  0  0  0  0  0  0  0  0  0  0  0
    1.2467   -1.3763   -1.3369 O   0  0  0  0  0  0  0  0  0  0  0  0
    1.0529    0.8213   -1.6747 N   0  0  0  0  0  0  0  0  0  0  0  0
    0.8672    1.7307   -1.2642 H   0  0  0  0  0  0  0  0  0  0  0  0
    1.5261    0.7615   -3.0537 C   0  0  0  0  0  0  0  0  0  0  0  0
    0.9090    0.0745   -3.6425 H   0  0  0  0  0  0  0  0  0  0  0  0
    1.4739    1.7524   -3.5149 H   0  0  0  0  0  0  0  0  0  0  0  0
    2.5656    0.4182   -3.0876 H   0  0  0  0  0  0  0  0  0  0  0  0
  1  2  1  0  0  0  0
  2  3  1  0  0  0  0
  2  4  1  0  0  0  0
  2  5  1  0  0  0  0
  5  6  2  0  0  0  0
  5  7  1  0  0  0  0
  7  8  1  0  0  0  0
  7  9  1  0  0  0  0
  9 10  1  0  0  0  0
  9 11  1  0  0  0  0
  9 16  1  0  0  0  0
 11 12  1  0  0  0  0
 11 13  1  0  0  0  0
 11 14  1  0  0  0  0
 14 15  1  0  0  0  0
 16 17  2  0  0  0  0
 16 18  1  0  0  0  0
 18 19  1  0  0  0  0
 18 20  1  0  0  0  0
 20 21  1  0  0  0  0
 20 22  1  0  0  0  0
 20 23  1  0  0  0  0
M  END
$$$$

  -OEChem-01062216093D

 23 22  0     1  0  0  0  0  0999 V2000
   -2.7041   -3.6980    0.9311 H   0  0  0  0  0  0  0  0  0  0  0  0
   -2.6194   -2.6548    0.6132 C   0  0  0  0  0  0  0  0  0  0  0  0
   -3.3971   -2.0711    1.1111 H   0  0  0  0  0  0  0  0  0  0  0  0
   -2.7693   -2.6064   -0.4682 H   0  0  0  0  0  0  0  0  0  0  0  0
   -1.2498   -2.1083    0.9701 C   0  0  0  0  0  0  0  0  0  0  0  0
   -0.4735   -2.8272    1.5761 O   0  0  0  0  0  0  0  0  0  0  0  0
   -0.9530   -0.7986    0.6337 N   0  0  0  0  0  0  0  0  0  0  0  0
   -1.6750   -0.3643    0.0670 H   0  0  0  0  0  0  0  0  0  0  0  0
    0.3813   -0.1420    0.5790 C   0  0  1  0  0  0  0  0  0  0  0  0
    0.1740    0.9222    0.7170 H   0  0  0  0  0  0  0  0  0  0  0  0
    1.4286   -0.4688    1.6636 C   0  0  0  0  0  0  0  0  0  0  0  0
    2.2877    0.2006    1.5530 H   0  0  0  0  0  0  0  0  0  0  0  0
    0.9853   -0.2770    2.6459 H   0  0  0  0  0  0  0  0  0  0  0  0
    1.8919   -1.8144    1.6292 O   0  0  0  0  0  0  0  0  0  0  0  0
    1.1038   -2.4186    1.6354 H   0  0  0  0  0  0  0  0  0  0  0  0
    1.0197   -0.2777   -0.8210 C   0  0  0  0  0  0  0  0  0  0  0  0
    0.9653   -1.3352   -1.4360 O   0  0  0  0  0  0  0  0  0  0  0  0
    1.3363    0.8647   -1.5381 N   0  0  0  0  0  0  0  0  0  0  0  0
    1.3893    1.7401   -1.0269 H   0  0  0  0  0  0  0  0  0  0  0  0
    1.8312    0.8292   -2.9102 C   0  0  0  0  0  0  0  0  0  0  0  0
    1.0855    0.3825   -3.5762 H   0  0  0  0  0  0  0  0  0  0  0  0
    2.0435    1.8429   -3.2626 H   0  0  0  0  0  0  0  0  0  0  0  0
    2.7536    0.2418   -2.9700 H   0  0  0  0  0  0  0  0  0  0  0  0
  1  2  1  0  0  0  0
  2  3  1  0  0  0  0
  2  4  1  0  0  0  0
  2  5  1  0  0  0  0
  5  6  2  0  0  0  0
  5  7  1  0  0  0  0
  7  8  1  0  0  0  0
  7  9  1  0  0  0  0
  9 10  1  0  0  0  0
  9 11  1  0  0  0  0
  9 16  1  0  0  0  0
 11 12  1  0  0  0  0
 11 13  1  0  0  0  0
 11 14  1  0  0  0  0
 14 15  1  0  0  0  0
 16 17  2  0  0  0  0
 16 18  1  0  0  0  0
 18 19  1  0  0  0  0
 18 20  1  0  0  0  0
 20 21  1  0  0  0  0
 20 22  1  0  0  0  0
 20 23  1  0  0  0  0
M  END
$$$$

  -OEChem-01062216093D

 23 22  0     1  0  0  0  0  0999 V2000
   -2.7009   -3.6996    0.9292 H   0  0  0  0  0  0  0  0  0  0  0  0
   -2.6152   -2.6578    0.6073 C   0  0  0  0  0  0  0  0  0  0  0  0
   -3.4084   -2.0763    1.0829 H   0  0  0  0  0  0  0  0  0  0  0  0
   -2.7394   -2.6159   -0.4777 H   0  0  0  0  0  0  0  0  0  0  0  0
   -1.2581   -2.0997    0.9936 C   0  0  0  0  0  0  0  0  0  0  0  0
   -0.4919   -2.8075    1.6259 O   0  0  0  0  0  0  0  0  0  0  0  0
   -0.9614   -0.7917    0.6513 N   0  0  0  0  0  0  0  0  0  0  0  0
   -1.6658   -0.3813    0.0454 H   0  0  0  0  0  0  0  0  0  0  0  0
    0.3735   -0.1359    0.5915 C   0  0  1  0  0  0  0  0  0  0  0  0
    0.1698    0.9292    0.7286 H   0  0  0  0  0  0  0  0  0  0  0  0
    1.4287   -0.4739    1.6636 C   0  0  0  0  0  0  0  0  0  0  0  0
    2.2891    0.1936    1.5523 H   0  0  0  0  0  0  0  0  0  0  0  0
    0.9963   -0.2918    2.6526 H   0  0  0  0  0  0  0  0  0  0  0  0
    1.8834   -1.8215    1.6040 O   0  0  0  0  0  0  0  0  0  0  0  0
    1.0922   -2.4202    1.6483 H   0  0  0  0  0  0  0  0  0  0  0  0
    1.0123   -0.2756   -0.8082 C   0  0  0  0  0  0  0  0  0  0  0  0
    0.7338   -1.2265   -1.5296 O   0  0  0  0  0  0  0  0  0  0  0  0
    1.6120    0.8255   -1.3968 N   0  0  0  0  0  0  0  0  0  0  0  0
    1.8639    1.6000   -0.7905 H   0  0  0  0  0  0  0  0  0  0  0  0
    2.1401    0.8078   -2.7566 C   0  0  0  0  0  0  0  0  0  0  0  0
    1.3376    0.6205   -3.4779 H   0  0  0  0  0  0  0  0  0  0  0  0
    2.6001    1.7712   -2.9961 H   0  0  0  0  0  0  0  0  0  0  0  0
    2.8993    0.0257   -2.8634 H   0  0  0  0  0  0  0  0  0  0  0  0
  1  2  1  0  0  0  0
  2  3  1  0  0  0  0
  2  4  1  0  0  0  0
  2  5  1  0  0  0  0
  5  6  2  0  0  0  0
  5  7  1  0  0  0  0
  7  8  1  0  0  0  0
  7  9  1  0  0  0  0
  9 10  1  0  0  0  0
  9 11  1  0  0  0  0
  9 16  1  0  0  0  0
 11 12  1  0  0  0  0
 11 13  1  0  0  0  0
 11 14  1  0  0  0  0
 14 15  1  0  0  0  0
 16 17  2  0  0  0  0
 16 18  1  0  0  0  0
 18 19  1  0  0  0  0
 18 20  1  0  0  0  0
 20 21  1  0  0  0  0
 20 22  1  0  0  0  0
 20 23  1  0  0  0  0
M  END
$$$$

  -OEChem-01062216093D

 23 22  0     1  0  0  0  0  0999 V2000
   -2.6893   -3.7070    0.9120 H   0  0  0  0  0  0  0  0  0  0  0  0
   -2.6105   -2.6613    0.6010 C   0  0  0  0  0  0  0  0  0  0  0  0
   -3.4153   -2.0920    1.0719 H   0  0  0  0  0  0  0  0  0  0  0  0
   -2.7216   -2.6106   -0.4851 H   0  0  0  0  0  0  0  0  0  0  0  0
   -1.2638   -2.0936    1.0086 C   0  0  0  0  0  0  0  0  0  0  0  0
   -0.5014   -2.7972    1.6505 O   0  0  0  0  0  0  0  0  0  0  0  0
   -0.9687   -0.7857    0.6659 N   0  0  0  0  0  0  0  0  0  0  0  0
   -1.6628   -0.3891    0.0386 H   0  0  0  0  0  0  0  0  0  0  0  0
    0.3648   -0.1266    0.6032 C   0  0  1  0  0  0  0  0  0  0  0  0
    0.1641    0.9391    0.7409 H   0  0  0  0  0  0  0  0  0  0  0  0
    1.4235   -0.4746    1.6690 C   0  0  0  0  0  0  0  0  0  0  0  0
    2.2845    0.1932    1.5647 H   0  0  0  0  0  0  0  0  0  0  0  0
    0.9934   -0.3040    2.6611 H   0  0  0  0  0  0  0  0  0  0  0  0
    1.8751   -1.8225    1.5916 O   0  0  0  0  0  0  0  0  0  0  0  0
    1.0839   -2.4196    1.6590 H   0  0  0  0  0  0  0  0  0  0  0  0
    1.0001   -0.2658   -0.7987 C   0  0  0  0  0  0  0  0  0  0  0  0
    0.5422   -1.0607   -1.6129 O   0  0  0  0  0  0  0  0  0  0  0  0
    1.8574    0.7169   -1.2644 N   0  0  0  0  0  0  0  0  0  0  0  0
    2.2710    1.3354   -0.5734 H   0  0  0  0  0  0  0  0  0  0  0  0
    2.4348    0.6909   -2.6036 C   0  0  0  0  0  0  0  0  0  0  0  0
    1.6471    0.7442   -3.3625 H   0  0  0  0  0  0  0  0  0  0  0  0
    3.1050    1.5444   -2.7431 H   0  0  0  0  0  0  0  0  0  0  0  0
    3.0095   -0.2290   -2.7553 H   0  0  0  0  0  0  0  0  0  0  0  0
  1  2  1  0  0  0  0
  2  3  1  0  0  0  0
  2  4  1  0  0  0  0
  2  5  1  0  0  0  0
  5  6  2  0  0  0  0
  5  7  1  0  0  0  0
  7  8  1  0  0  0  0
  7  9  1  0  0  0  0
  9 10  1  0  0  0  0
  9 11  1  0  0  0  0
  9 16  1  0  0  0  0
 11 12  1  0  0  0  0
 11 13  1  0  0  0  0
 11 14  1  0  0  0  0
 14 15  1  0  0  0  0
 16 17  2  0  0  0  0
 16 18  1  0  0  0  0
 18 19  1  0  0  0  0
 18 20  1  0  0  0  0
 20 21  1  0  0  0  0
 20 22  1  0  0  0  0
 20 23  1  0  0  0  0
M  END
$$$$

  -OEChem-01062216093D

 23 22  0     1  0  0  0  0  0999 V2000
   -2.6958   -3.7068    0.9089 H   0  0  0  0  0  0  0  0  0  0  0  0
   -2.6141   -2.6608    0.6000 C   0  0  0  0  0  0  0  0  0  0  0  0
   -3.4155   -2.0901    1.0751 H   0  0  0  0  0  0  0  0  0  0  0  0
   -2.7291   -2.6069   -0.4856 H   0  0  0  0  0  0  0  0  0  0  0  0
   -1.2641   -2.0986    1.0043 C   0  0  0  0  0  0  0  0  0  0  0  0
   -0.4975   -2.8103    1.6322 O   0  0  0  0  0  0  0  0  0  0  0  0
   -0.9669   -0.7903    0.6664 N   0  0  0  0  0  0  0  0  0  0  0  0
   -1.6563   -0.3941    0.0330 H   0  0  0  0  0  0  0  0  0  0  0  0
    0.3630   -0.1225    0.6118 C   0  0  1  0  0  0  0  0  0  0  0  0
    0.1610    0.9434    0.7464 H   0  0  0  0  0  0  0  0  0  0  0  0
    1.4118   -0.4720    1.6884 C   0  0  0  0  0  0  0  0  0  0  0  0
    2.2721    0.1990    1.6016 H   0  0  0  0  0  0  0  0  0  0  0  0
    0.9682   -0.3082    2.6758 H   0  0  0  0  0  0  0  0  0  0  0  0
    1.8675   -1.8185    1.6103 O   0  0  0  0  0  0  0  0  0  0  0  0
    1.0774   -2.4180    1.6735 H   0  0  0  0  0  0  0  0  0  0  0  0
    1.0030   -0.2588   -0.7895 C   0  0  0  0  0  0  0  0  0  0  0  0
    0.4132   -0.8627   -1.6802 O   0  0  0  0  0  0  0  0  0  0  0  0
    2.0785    0.5379   -1.1446 N   0  0  0  0  0  0  0  0  0  0  0  0
    2.6062    0.9589   -0.3858 H   0  0  0  0  0  0  0  0  0  0  0  0
    2.6883    0.4980   -2.4687 C   0  0  0  0  0  0  0  0  0  0  0  0
    1.9560    0.7647   -3.2380 H   0  0  0  0  0  0  0  0  0  0  0  0
    3.5182    1.2093   -2.5240 H   0  0  0  0  0  0  0  0  0  0  0  0
    3.0747   -0.5042   -2.6821 H   0  0  0  0  0  0  0  0  0  0  0  0
  1  2  1  0  0  0  0
  2  3  1  0  0  0  0
  2  4  1  0  0  0  0
  2  5  1  0  0  0  0
  5  6  2  0  0  0  0
  5  7  1  0  0  0  0
  7  8  1  0  0  0  0
  7  9  1  0  0  0  0
  9 10  1  0  0  0  0
  9 11  1  0  0  0  0
  9 16  1  0  0  0  0
 11 12  1  0  0  0  0
 11 13  1  0  0  0  0
 11 14  1  0  0  0  0
 14 15  1  0  0  0  0
 16 17  2  0  0  0  0
 16 18  1  0  0  0  0
 18 19  1  0  0  0  0
 18 20  1  0  0  0  0
 20 21  1  0  0  0  0
 20 22  1  0  0  0  0
 20 23  1  0  0  0  0
M  END
$$$$

  -OEChem-01062216093D

 23 22  0     1  0  0  0  0  0999 V2000
   -2.7169   -3.7002    0.8689 H   0  0  0  0  0  0  0  0  0  0  0  0
   -2.6254   -2.6487    0.5824 C   0  0  0  0  0  0  0  0  0  0  0  0
   -3.3955   -2.0740    1.1024 H   0  0  0  0  0  0  0  0  0  0  0  0
   -2.7819   -2.5642   -0.4960 H   0  0  0  0  0  0  0  0  0  0  0  0
   -1.2499   -2.1230    0.9475 C   0  0  0  0  0  0  0  0  0  0  0  0
   -0.4615   -2.8757    1.4969 O   0  0  0  0  0  0  0  0  0  0  0  0
   -0.9410   -0.8128    0.6287 N   0  0  0  0  0  0  0  0  0  0  0  0
   -1.6301   -0.3891    0.0104 H   0  0  0  0  0  0  0  0  0  0  0  0
    0.3833   -0.1341    0.6016 C   0  0  1  0  0  0  0  0  0  0  0  0
    0.2111    0.8698    0.9989 H   0  0  0  0  0  0  0  0  0  0  0  0
    1.5278   -0.7128    1.4576 C   0  0  0  0  0  0  0  0  0  0  0  0
    2.3863   -0.0343    1.4424 H   0  0  0  0  0  0  0  0  0  0  0  0
    1.1942   -0.7902    2.4975 H   0  0  0  0  0  0  0  0  0  0  0  0
    1.9393   -1.9985    1.0033 O   0  0  0  0  0  0  0  0  0  0  0  0
    1.1793   -2.6187    1.1432 H   0  0  0  0  0  0  0  0  0  0  0  0
    0.8554    0.0651   -0.8577 C   0  0  0  0  0  0  0  0  0  0  0  0
    0.0590   -0.1034   -1.7771 O   0  0  0  0  0  0  0  0  0  0  0  0
    2.0654    0.6748   -1.1411 N   0  0  0  0  0  0  0  0  0  0  0  0
    2.7543    0.6737   -0.3941 H   0  0  0  0  0  0  0  0  0  0  0  0
    2.5331    0.8978   -2.5041 C   0  0  0  0  0  0  0  0  0  0  0  0
    1.8345    1.5405   -3.0502 H   0  0  0  0  0  0  0  0  0  0  0  0
    3.5117    1.3874   -2.4922 H   0  0  0  0  0  0  0  0  0  0  0  0
    2.6274   -0.0540   -3.0376 H   0  0  0  0  0  0  0  0  0  0  0  0
  1  2  1  0  0  0  0
  2  3  1  0  0  0  0
  2  4  1  0  0  0  0
  2  5  1  0  0  0  0
  5  6  2  0  0  0  0
  5  7  1  0  0  0  0
  7  8  1  0  0  0  0
  7  9  1  0  0  0  0
  9 10  1  0  0  0  0
  9 11  1  0  0  0  0
  9 16  1  0  0  0  0
 11 12  1  0  0  0  0
 11 13  1  0  0  0  0
 11 14  1  0  0  0  0
 14 15  1  0  0  0  0
 16 17  2  0  0  0  0
 16 18  1  0  0  0  0
 18 19  1  0  0  0  0
 18 20  1  0  0  0  0
 20 21  1  0  0  0  0
 20 22  1  0  0  0  0
 20 23  1  0  0  0  0
M  END
$$$$

  -OEChem-01062216093D

 23 22  0     1  0  0  0  0  0999 V2000
   -2.7185   -3.6993    0.8398 H   0  0  0  0  0  0  0  0  0  0  0  0
   -2.6282   -2.6414    0.5774 C   0  0  0  0  0  0  0  0  0  0  0  0
   -3.3849   -2.0771    1.1277 H   0  0  0  0  0  0  0  0  0  0  0  0
   -2.8076   -2.5297   -0.4949 H   0  0  0  0  0  0  0  0  0  0  0  0
   -1.2430   -2.1295    0.9263 C   0  0  0  0  0  0  0  0  0  0  0  0
   -0.4492   -2.8940    1.4510 O   0  0  0  0  0  0  0  0  0  0  0  0
   -0.9296   -0.8178    0.6189 N   0  0  0  0  0  0  0  0  0  0  0  0
   -1.6244   -0.3743    0.0205 H   0  0  0  0  0  0  0  0  0  0  0  0
    0.3912   -0.1326    0.6123 C   0  0  1  0  0  0  0  0  0  0  0  0
    0.2107    0.8714    1.0062 H   0  0  0  0  0  0  0  0  0  0  0  0
    1.5255   -0.7045    1.4878 C   0  0  0  0  0  0  0  0  0  0  0  0
    2.3791   -0.0193    1.4892 H   0  0  0  0  0  0  0  0  0  0  0  0
    1.1737   -0.7843    2.5216 H   0  0  0  0  0  0  0  0  0  0  0  0
    1.9523   -1.9886    1.0421 O   0  0  0  0  0  0  0  0  0  0  0  0
    1.1909   -2.6119    1.1628 H   0  0  0  0  0  0  0  0  0  0  0  0
    0.8687    0.0686   -0.8453 C   0  0  0  0  0  0  0  0  0  0  0  0
    0.0314    0.1145   -1.7424 O   0  0  0  0  0  0  0  0  0  0  0  0
    2.1801    0.3939   -1.1452 N   0  0  0  0  0  0  0  0  0  0  0  0
    2.8651    0.1561   -0.4314 H   0  0  0  0  0  0  0  0  0  0  0  0
    2.6524    0.5650   -2.5140 C   0  0  0  0  0  0  0  0  0  0  0  0
    2.0879    1.3549   -3.0206 H   0  0  0  0  0  0  0  0  0  0  0  0
    3.7102    0.8451   -2.5162 H   0  0  0  0  0  0  0  0  0  0  0  0
    2.5382   -0.3672   -3.0772 H   0  0  0  0  0  0  0  0  0  0  0  0
  1  2  1  0  0  0  0
  2  3  1  0  0  0  0
  2  4  1  0  0  0  0
  2  5  1  0  0  0  0
  5  6  2  0  0  0  0
  5  7  1  0  0  0  0
  7  8  1  0  0  0  0
  7  9  1  0  0  0  0
  9 10  1  0  0  0  0
  9 11  1  0  0  0  0
  9 16  1  0  0  0  0
 11 12  1  0  0  0  0
 11 13  1  0  0  0  0
 11 14  1  0  0  0  0
 14 15  1  0  0  0  0
 16 17  2  0  0  0  0
 16 18  1  0  0  0  0
 18 19  1  0  0  0  0
 18 20  1  0  0  0  0
 20 21  1  0  0  0  0
 20 22  1  0  0  0  0
 20 23  1  0  0  0  0
M  END
$$$$

  -OEChem-01062216093D

 23 22  0     1  0  0  0  0  0999 V2000
   -2.7266   -3.6933    0.8451 H   0  0  0  0  0  0  0  0  0  0  0  0
   -2.6328   -2.6359    0.5815 C   0  0  0  0  0  0  0  0  0  0  0  0
   -3.3744   -2.0659    1.1463 H   0  0  0  0  0  0  0  0  0  0  0  0
   -2.8316   -2.5223   -0.4871 H   0  0  0  0  0  0  0  0  0  0  0  0
   -1.2374   -2.1353    0.9051 C   0  0  0  0  0  0  0  0  0  0  0  0
   -0.4355   -2.9095    1.4024 O   0  0  0  0  0  0  0  0  0  0  0  0
   -0.9205   -0.8234    0.6028 N   0  0  0  0  0  0  0  0  0  0  0  0
   -1.6263   -0.3588    0.0339 H   0  0  0  0  0  0  0  0  0  0  0  0
    0.3975   -0.1352    0.6116 C   0  0  1  0  0  0  0  0  0  0  0  0
    0.2099    0.8699    0.9996 H   0  0  0  0  0  0  0  0  0  0  0  0
    1.5243   -0.6960    1.5048 C   0  0  0  0  0  0  0  0  0  0  0  0
    2.3729   -0.0043    1.5106 H   0  0  0  0  0  0  0  0  0  0  0  0
    1.1601   -0.7706    2.5346 H   0  0  0  0  0  0  0  0  0  0  0  0
    1.9651   -1.9812    1.0736 O   0  0  0  0  0  0  0  0  0  0  0  0
    1.2021   -2.6067    1.1774 H   0  0  0  0  0  0  0  0  0  0  0  0
    0.8821    0.0633   -0.8427 C   0  0  0  0  0  0  0  0  0  0  0  0
    0.0504    0.3179   -1.7086 O   0  0  0  0  0  0  0  0  0  0  0  0
    2.2251    0.0883   -1.1725 N   0  0  0  0  0  0  0  0  0  0  0  0
    2.8418   -0.3580   -0.4944 H   0  0  0  0  0  0  0  0  0  0  0  0
    2.6963    0.2156   -2.5459 C   0  0  0  0  0  0  0  0  0  0  0  0
    2.3126    1.1346   -3.0014 H   0  0  0  0  0  0  0  0  0  0  0  0
    3.7897    0.2540   -2.5672 H   0  0  0  0  0  0  0  0  0  0  0  0
    2.3660   -0.6397   -3.1445 H   0  0  0  0  0  0  0  0  0  0  0  0
  1  2  1  0  0  0  0
  2  3  1  0  0  0  0
  2  4  1  0  0  0  0
  2  5  1  0  0  0  0
  5  6  2  0  0  0  0
  5  7  1  0  0  0  0
  7  8  1  0  0  0  0
  7  9  1  0  0  0  0
  9 10  1  0  0  0  0
  9 11  1  0  0  0  0
  9 16  1  0  0  0  0
 11 12  1  0  0  0  0
 11 13  1  0  0  0  0
 11 14  1  0  0  0  0
 14 15  1  0  0  0  0
 16 17  2  0  0  0  0
 16 18  1  0  0  0  0
 18 19  1  0  0  0  0
 18 20  1  0  0  0  0
 20 21  1  0  0  0  0
 20 22  1  0  0  0  0
 20 23  1  0  0  0  0
M  END
$$$$

  -OEChem-01062216093D

 23 22  0     1  0  0  0  0  0999 V2000
   -2.7392   -3.6849    0.8554 H   0  0  0  0  0  0  0  0  0  0  0  0
   -2.6407   -2.6275    0.5936 C   0  0  0  0  0  0  0  0  0  0  0  0
   -3.3621   -2.0523    1.1791 H   0  0  0  0  0  0  0  0  0  0  0  0
   -2.8650   -2.5072   -0.4691 H   0  0  0  0  0  0  0  0  0  0  0  0
   -1.2323   -2.1429    0.8841 C   0  0  0  0  0  0  0  0  0  0  0  0
   -0.4237   -2.9293    1.3503 O   0  0  0  0  0  0  0  0  0  0  0  0
   -0.9107   -0.8310    0.5868 N   0  0  0  0  0  0  0  0  0  0  0  0
   -1.6321   -0.3429    0.0591 H   0  0  0  0  0  0  0  0  0  0  0  0
    0.4054   -0.1404    0.6037 C   0  0  1  0  0  0  0  0  0  0  0  0
    0.2127    0.8646    0.9897 H   0  0  0  0  0  0  0  0  0  0  0  0
    1.5238   -0.6971    1.5111 C   0  0  0  0  0  0  0  0  0  0  0  0
    2.3714   -0.0038    1.5161 H   0  0  0  0  0  0  0  0  0  0  0  0
    1.1506   -0.7638    2.5382 H   0  0  0  0  0  0  0  0  0  0  0  0
    1.9738   -1.9858    1.0950 O   0  0  0  0  0  0  0  0  0  0  0  0
    1.2081   -2.6111    1.1852 H   0  0  0  0  0  0  0  0  0  0  0  0
    0.8986    0.0620   -0.8457 C   0  0  0  0  0  0  0  0  0  0  0  0
    0.1085    0.5021   -1.6743 O   0  0  0  0  0  0  0  0  0  0  0  0
    2.2007   -0.2051   -1.2258 N   0  0  0  0  0  0  0  0  0  0  0  0
    2.7310   -0.7795   -0.5684 H   0  0  0  0  0  0  0  0  0  0  0  0
    2.6542   -0.1350   -2.6088 C   0  0  0  0  0  0  0  0  0  0  0  0
    2.4689    0.8611   -3.0245 H   0  0  0  0  0  0  0  0  0  0  0  0
    3.7286   -0.3345   -2.6637 H   0  0  0  0  0  0  0  0  0  0  0  0
    2.1301   -0.8760   -3.2214 H   0  0  0  0  0  0  0  0  0  0  0  0
  1  2  1  0  0  0  0
  2  3  1  0  0  0  0
  2  4  1  0  0  0  0
  2  5  1  0  0  0  0
  5  6  2  0  0  0  0
  5  7  1  0  0  0  0
  7  8  1  0  0  0  0
  7  9  1  0  0  0  0
  9 10  1  0  0  0  0
  9 11  1  0  0  0  0
  9 16  1  0  0  0  0
 11 12  1  0  0  0  0
 11 13  1  0  0  0  0
 11 14  1  0  0  0  0
 14 15  1  0  0  0  0
 16 17  2  0  0  0  0
 16 18  1  0  0  0  0
 18 19  1  0  0  0  0
 18 20  1  0  0  0  0
 20 21  1  0  0  0  0
 20 22  1  0  0  0  0
 20 23  1  0  0  0  0
M  END
$$$$

  -OEChem-01062216093D

 23 22  0     1  0  0  0  0  0999 V2000
   -2.7569   -3.6742    0.8839 H   0  0  0  0  0  0  0  0  0  0  0  0
   -2.6523   -2.6193    0.6147 C   0  0  0  0  0  0  0  0  0  0  0  0
   -3.3514   -2.0330    1.2160 H   0  0  0  0  0  0  0  0  0  0  0  0
   -2.9027   -2.5009   -0.4424 H   0  0  0  0  0  0  0  0  0  0  0  0
   -1.2311   -2.1514    0.8670 C   0  0  0  0  0  0  0  0  0  0  0  0
   -0.4184   -2.9490    1.3057 O   0  0  0  0  0  0  0  0  0  0  0  0
   -0.9045   -0.8410    0.5687 N   0  0  0  0  0  0  0  0  0  0  0  0
   -1.6407   -0.3339    0.0813 H   0  0  0  0  0  0  0  0  0  0  0  0
    0.4111   -0.1499    0.5871 C   0  0  1  0  0  0  0  0  0  0  0  0
    0.2150    0.8558    0.9701 H   0  0  0  0  0  0  0  0  0  0  0  0
    1.5215   -0.7037    1.5083 C   0  0  0  0  0  0  0  0  0  0  0  0
    2.3710   -0.0127    1.5080 H   0  0  0  0  0  0  0  0  0  0  0  0
    1.1426   -0.7576    2.5341 H   0  0  0  0  0  0  0  0  0  0  0  0
    1.9762   -1.9987    1.1119 O   0  0  0  0  0  0  0  0  0  0  0  0
    1.2074   -2.6218    1.1947 H   0  0  0  0  0  0  0  0  0  0  0  0
    0.9143    0.0535   -0.8573 C   0  0  0  0  0  0  0  0  0  0  0  0
    0.1976    0.6648   -1.6417 O   0  0  0  0  0  0  0  0  0  0  0  0
    2.1060   -0.4836   -1.3053 N   0  0  0  0  0  0  0  0  0  0  0  0
    2.5615   -1.1353   -0.6621 H   0  0  0  0  0  0  0  0  0  0  0  0
    2.5321   -0.4509   -2.6979 C   0  0  0  0  0  0  0  0  0  0  0  0
    2.5716    0.5808   -3.0629 H   0  0  0  0  0  0  0  0  0  0  0  0
    3.5301   -0.8886   -2.7971 H   0  0  0  0  0  0  0  0  0  0  0  0
    1.8379   -1.0210   -3.3238 H   0  0  0  0  0  0  0  0  0  0  0  0
  1  2  1  0  0  0  0
  2  3  1  0  0  0  0
  2  4  1  0  0  0  0
  2  5  1  0  0  0  0
  5  6  2  0  0  0  0
  5  7  1  0  0  0  0
  7  8  1  0  0  0  0
  7  9  1  0  0  0  0
  9 10  1  0  0  0  0
  9 11  1  0  0  0  0
  9 16  1  0  0  0  0
 11 12  1  0  0  0  0
 11 13  1  0  0  0  0
 11 14  1  0  0  0  0
 14 15  1  0  0  0  0
 16 17  2  0  0  0  0
 16 18  1  0  0  0  0
 18 19  1  0  0  0  0
 18 20  1  0  0  0  0
 20 21  1  0  0  0  0
 20 22  1  0  0  0  0
 20 23  1  0  0  0  0
M  END
$$$$

  -OEChem-01062216093D

 23 22  0     1  0  0  0  0  0999 V2000
   -2.7878   -3.6641    0.9516 H   0  0  0  0  0  0  0  0  0  0  0  0
   -2.6790   -2.6129    0.6687 C   0  0  0  0  0  0  0  0  0  0  0  0
   -3.3445   -2.0113    1.2929 H   0  0  0  0  0  0  0  0  0  0  0  0
   -2.9707   -2.4997   -0.3785 H   0  0  0  0  0  0  0  0  0  0  0  0
   -1.2420   -2.1639    0.8592 C   0  0  0  0  0  0  0  0  0  0  0  0
   -0.4228   -2.9726    1.2634 O   0  0  0  0  0  0  0  0  0  0  0  0
   -0.9097   -0.8582    0.5458 N   0  0  0  0  0  0  0  0  0  0  0  0
   -1.6650   -0.3307    0.1131 H   0  0  0  0  0  0  0  0  0  0  0  0
    0.4070   -0.1685    0.5520 C   0  0  1  0  0  0  0  0  0  0  0  0
    0.2119    0.8410    0.9255 H   0  0  0  0  0  0  0  0  0  0  0  0
    1.5129   -0.7134    1.4838 C   0  0  0  0  0  0  0  0  0  0  0  0
    2.3652   -0.0259    1.4717 H   0  0  0  0  0  0  0  0  0  0  0  0
    1.1314   -0.7463    2.5094 H   0  0  0  0  0  0  0  0  0  0  0  0
    1.9662   -2.0173    1.1132 O   0  0  0  0  0  0  0  0  0  0  0  0
    1.1929   -2.6359    1.1954 H   0  0  0  0  0  0  0  0  0  0  0  0
    0.9186    0.0242   -0.8895 C   0  0  0  0  0  0  0  0  0  0  0  0
    0.3219    0.8067   -1.6191 O   0  0  0  0  0  0  0  0  0  0  0  0
    1.9353   -0.7480   -1.4157 N   0  0  0  0  0  0  0  0  0  0  0  0
    2.3377   -1.4467   -0.7866 H   0  0  0  0  0  0  0  0  0  0  0  0
    2.3665   -0.6982   -2.8059 C   0  0  0  0  0  0  0  0  0  0  0  0
    2.6413    0.3239   -3.0868 H   0  0  0  0  0  0  0  0  0  0  0  0
    3.2396   -1.3415   -2.9525 H   0  0  0  0  0  0  0  0  0  0  0  0
    1.5651   -1.0428   -3.4675 H   0  0  0  0  0  0  0  0  0  0  0  0
  1  2  1  0  0  0  0
  2  3  1  0  0  0  0
  2  4  1  0  0  0  0
  2  5  1  0  0  0  0
  5  6  2  0  0  0  0
  5  7  1  0  0  0  0
  7  8  1  0  0  0  0
  7  9  1  0  0  0  0
  9 10  1  0  0  0  0
  9 11  1  0  0  0  0
  9 16  1  0  0  0  0
 11 12  1  0  0  0  0
 11 13  1  0  0  0  0
 11 14  1  0  0  0  0
 14 15  1  0  0  0  0
 16 17  2  0  0  0  0
 16 18  1  0  0  0  0
 18 19  1  0  0  0  0
 18 20  1  0  0  0  0
 20 21  1  0  0  0  0
 20 22  1  0  0  0  0
 20 23  1  0  0  0  0
M  END
$$$$

  -OEChem-01062216093D

 23 22  0     1  0  0  0  0  0999 V2000
   -2.8075   -3.6612    1.0300 H   0  0  0  0  0  0  0  0  0  0  0  0
   -2.7005   -2.6165    0.7240 C   0  0  0  0  0  0  0  0  0  0  0  0
   -3.3490   -1.9995    1.3507 H   0  0  0  0  0  0  0  0  0  0  0  0
   -3.0148   -2.5223   -0.3184 H   0  0  0  0  0  0  0  0  0  0  0  0
   -1.2578   -2.1709    0.8729 C   0  0  0  0  0  0  0  0  0  0  0  0
   -0.4306   -2.9788    1.2624 O   0  0  0  0  0  0  0  0  0  0  0  0
   -0.9296   -0.8709    0.5324 N   0  0  0  0  0  0  0  0  0  0  0  0
   -1.6994   -0.3393    0.1324 H   0  0  0  0  0  0  0  0  0  0  0  0
    0.3865   -0.1799    0.5142 C   0  0  1  0  0  0  0  0  0  0  0  0
    0.1944    0.8344    0.8776 H   0  0  0  0  0  0  0  0  0  0  0  0
    1.5037   -0.7130    1.4380 C   0  0  0  0  0  0  0  0  0  0  0  0
    2.3553   -0.0257    1.4043 H   0  0  0  0  0  0  0  0  0  0  0  0
    1.1368   -0.7324    2.4692 H   0  0  0  0  0  0  0  0  0  0  0  0
    1.9534   -2.0212    1.0772 O   0  0  0  0  0  0  0  0  0  0  0  0
    1.1843   -2.6408    1.1847 H   0  0  0  0  0  0  0  0  0  0  0  0
    0.8908   -0.0106   -0.9316 C   0  0  0  0  0  0  0  0  0  0  0  0
    0.4581    0.9209   -1.5985 O   0  0  0  0  0  0  0  0  0  0  0  0
    1.6751   -0.9702   -1.5402 N   0  0  0  0  0  0  0  0  0  0  0  0
    2.0453   -1.6972   -0.9243 H   0  0  0  0  0  0  0  0  0  0  0  0
    2.1565   -0.8790   -2.9114 C   0  0  0  0  0  0  0  0  0  0  0  0
    2.7715    0.0173   -3.0426 H   0  0  0  0  0  0  0  0  0  0  0  0
    2.7640   -1.7555   -3.1564 H   0  0  0  0  0  0  0  0  0  0  0  0
    1.3151   -0.8359   -3.6107 H   0  0  0  0  0  0  0  0  0  0  0  0
  1  2  1  0  0  0  0
  2  3  1  0  0  0  0
  2  4  1  0  0  0  0
  2  5  1  0  0  0  0
  5  6  2  0  0  0  0
  5  7  1  0  0  0  0
  7  8  1  0  0  0  0
  7  9  1  0  0  0  0
  9 10  1  0  0  0  0
  9 11  1  0  0  0  0
  9 16  1  0  0  0  0
 11 12  1  0  0  0  0
 11 13  1  0  0  0  0
 11 14  1  0  0  0  0
 14 15  1  0  0  0  0
 16 17  2  0  0  0  0
 16 18  1  0  0  0  0
 18 19  1  0  0  0  0
 18 20  1  0  0  0  0
 20 21  1  0  0  0  0
 20 22  1  0  0  0  0
 20 23  1  0  0  0  0
M  END
$$$$

  -OEChem-01062216093D

 23 22  0     1  0  0  0  0  0999 V2000
   -2.8244   -3.6565    1.0914 H   0  0  0  0  0  0  0  0  0  0  0  0
   -2.7220   -2.6141    0.7760 C   0  0  0  0  0  0  0  0  0  0  0  0
   -3.3451   -1.9904    1.4216 H   0  0  0  0  0  0  0  0  0  0  0  0
   -3.0718   -2.5236   -0.2553 H   0  0  0  0  0  0  0  0  0  0  0  0
   -1.2724   -2.1760    0.8724 C   0  0  0  0  0  0  0  0  0  0  0  0
   -0.4358   -2.9885    1.2308 O   0  0  0  0  0  0  0  0  0  0  0  0
   -0.9493   -0.8781    0.5180 N   0  0  0  0  0  0  0  0  0  0  0  0
   -1.7337   -0.3385    0.1597 H   0  0  0  0  0  0  0  0  0  0  0  0
    0.3645   -0.1813    0.4855 C   0  0  1  0  0  0  0  0  0  0  0  0
    0.1740    0.8321    0.8521 H   0  0  0  0  0  0  0  0  0  0  0  0
    1.4948   -0.7165    1.3894 C   0  0  0  0  0  0  0  0  0  0  0  0
    2.3448   -0.0273    1.3467 H   0  0  0  0  0  0  0  0  0  0  0  0
    1.1447   -0.7450    2.4263 H   0  0  0  0  0  0  0  0  0  0  0  0
    1.9390   -2.0207    1.0087 O   0  0  0  0  0  0  0  0  0  0  0  0
    1.1762   -2.6437    1.1369 H   0  0  0  0  0  0  0  0  0  0  0  0
    0.8696   -0.0182   -0.9596 C   0  0  0  0  0  0  0  0  0  0  0  0
    0.6503    1.0324   -1.5488 O   0  0  0  0  0  0  0  0  0  0  0  0
    1.3891   -1.0921   -1.6556 N   0  0  0  0  0  0  0  0  0  0  0  0
    1.6766   -1.8832   -1.0774 H   0  0  0  0  0  0  0  0  0  0  0  0
    1.8995   -0.9927   -3.0162 C   0  0  0  0  0  0  0  0  0  0  0  0
    2.7318   -0.2828   -3.0626 H   0  0  0  0  0  0  0  0  0  0  0  0
    2.2561   -1.9695   -3.3566 H   0  0  0  0  0  0  0  0  0  0  0  0
    1.1111   -0.6574   -3.6982 H   0  0  0  0  0  0  0  0  0  0  0  0
  1  2  1  0  0  0  0
  2  3  1  0  0  0  0
  2  4  1  0  0  0  0
  2  5  1  0  0  0  0
  5  6  2  0  0  0  0
  5  7  1  0  0  0  0
  7  8  1  0  0  0  0
  7  9  1  0  0  0  0
  9 10  1  0  0  0  0
  9 11  1  0  0  0  0
  9 16  1  0  0  0  0
 11 12  1  0  0  0  0
 11 13  1  0  0  0  0
 11 14  1  0  0  0  0
 14 15  1  0  0  0  0
 16 17  2  0  0  0  0
 16 18  1  0  0  0  0
 18 19  1  0  0  0  0
 18 20  1  0  0  0  0
 20 21  1  0  0  0  0
 20 22  1  0  0  0  0
 20 23  1  0  0  0  0
M  END
$$$$

  -OEChem-01062216093D

 23 22  0     1  0  0  0  0  0999 V2000
   -2.8289   -3.6590    1.1447 H   0  0  0  0  0  0  0  0  0  0  0  0
   -2.7366   -2.6174    0.8236 C   0  0  0  0  0  0  0  0  0  0  0  0
   -3.3292   -1.9908    1.4945 H   0  0  0  0  0  0  0  0  0  0  0  0
   -3.1302   -2.5273   -0.1919 H   0  0  0  0  0  0  0  0  0  0  0  0
   -1.2826   -2.1846    0.8577 C   0  0  0  0  0  0  0  0  0  0  0  0
   -0.4320   -3.0060    1.1570 O   0  0  0  0  0  0  0  0  0  0  0  0
   -0.9698   -0.8852    0.4999 N   0  0  0  0  0  0  0  0  0  0  0  0
   -1.7698   -0.3346    0.1982 H   0  0  0  0  0  0  0  0  0  0  0  0
    0.3391   -0.1763    0.4652 C   0  0  1  0  0  0  0  0  0  0  0  0
    0.1435    0.8339    0.8381 H   0  0  0  0  0  0  0  0  0  0  0  0
    1.4807   -0.7123    1.3515 C   0  0  0  0  0  0  0  0  0  0  0  0
    2.3252   -0.0164    1.3102 H   0  0  0  0  0  0  0  0  0  0  0  0
    1.1409   -0.7583    2.3912 H   0  0  0  0  0  0  0  0  0  0  0  0
    1.9287   -2.0067    0.9461 O   0  0  0  0  0  0  0  0  0  0  0  0
    1.1744   -2.6390    1.0727 H   0  0  0  0  0  0  0  0  0  0  0  0
    0.8501   -0.0090   -0.9765 C   0  0  0  0  0  0  0  0  0  0  0  0
    0.8906    1.1097   -1.4720 O   0  0  0  0  0  0  0  0  0  0  0  0
    1.0910   -1.1162   -1.7671 N   0  0  0  0  0  0  0  0  0  0  0  0
    1.2149   -1.9891   -1.2555 H   0  0  0  0  0  0  0  0  0  0  0  0
    1.6232   -1.0216   -3.1200 C   0  0  0  0  0  0  0  0  0  0  0  0
    2.6073   -0.5413   -3.1122 H   0  0  0  0  0  0  0  0  0  0  0  0
    1.7276   -2.0205   -3.5543 H   0  0  0  0  0  0  0  0  0  0  0  0
    0.9507   -0.4380   -3.7573 H   0  0  0  0  0  0  0  0  0  0  0  0
  1  2  1  0  0  0  0
  2  3  1  0  0  0  0
  2  4  1  0  0  0  0
  2  5  1  0  0  0  0
  5  6  2  0  0  0  0
  5  7  1  0  0  0  0
  7  8  1  0  0  0  0
  7  9  1  0  0  0  0
  9 10  1  0  0  0  0
  9 11  1  0  0  0  0
  9 16  1  0  0  0  0
 11 12  1  0  0  0  0
 11 13  1  0  0  0  0
 11 14  1  0  0  0  0
 14 15  1  0  0  0  0
 16 17  2  0  0  0  0
 16 18  1  0  0  0  0
 18 19  1  0  0  0  0
 18 20  1  0  0  0  0
 20 21  1  0  0  0  0
 20 22  1  0  0  0  0
 20 23  1  0  0  0  0
M  END
$$$$

  -OEChem-01062216093D

 23 22  0     1  0  0  0  0  0999 V2000
   -2.8249   -3.6626    1.2115 H   0  0  0  0  0  0  0  0  0  0  0  0
   -2.7469   -2.6213    0.8855 C   0  0  0  0  0  0  0  0  0  0  0  0
   -3.2914   -1.9921    1.5940 H   0  0  0  0  0  0  0  0  0  0  0  0
   -3.2046   -2.5272   -0.1025 H   0  0  0  0  0  0  0  0  0  0  0  0
   -1.2911   -2.1978    0.8266 C   0  0  0  0  0  0  0  0  0  0  0  0
   -0.4263   -3.0330    1.0290 O   0  0  0  0  0  0  0  0  0  0  0  0
   -0.9909   -0.8947    0.4731 N   0  0  0  0  0  0  0  0  0  0  0  0
   -1.8058   -0.3280    0.2524 H   0  0  0  0  0  0  0  0  0  0  0  0
    0.3127   -0.1736    0.4461 C   0  0  1  0  0  0  0  0  0  0  0  0
    0.1065    0.8332    0.8228 H   0  0  0  0  0  0  0  0  0  0  0  0
    1.4593   -0.7048    1.3275 C   0  0  0  0  0  0  0  0  0  0  0  0
    2.2968    0.0002    1.2937 H   0  0  0  0  0  0  0  0  0  0  0  0
    1.1184   -0.7633    2.3661 H   0  0  0  0  0  0  0  0  0  0  0  0
    1.9215   -1.9901    0.9116 O   0  0  0  0  0  0  0  0  0  0  0  0
    1.1682   -2.6297    0.9931 H   0  0  0  0  0  0  0  0  0  0  0  0
    0.8369    0.0059   -0.9889 C   0  0  0  0  0  0  0  0  0  0  0  0
    1.1587    1.1208   -1.3782 O   0  0  0  0  0  0  0  0  0  0  0  0
    0.8044   -1.0501   -1.8804 N   0  0  0  0  0  0  0  0  0  0  0  0
    0.6962   -1.9703   -1.4591 H   0  0  0  0  0  0  0  0  0  0  0  0
    1.3559   -0.9609   -3.2259 C   0  0  0  0  0  0  0  0  0  0  0  0
    2.4279   -0.7405   -3.1864 H   0  0  0  0  0  0  0  0  0  0  0  0
    1.2149   -1.9080   -3.7555 H   0  0  0  0  0  0  0  0  0  0  0  0
    0.8546   -0.1709   -3.7948 H   0  0  0  0  0  0  0  0  0  0  0  0
  1  2  1  0  0  0  0
  2  3  1  0  0  0  0
  2  4  1  0  0  0  0
  2  5  1  0  0  0  0
  5  6  2  0  0  0  0
  5  7  1  0  0  0  0
  7  8  1  0  0  0  0
  7  9  1  0  0  0  0
  9 10  1  0  0  0  0
  9 11  1  0  0  0  0
  9 16  1  0  0  0  0
 11 12  1  0  0  0  0
 11 13  1  0  0  0  0
 11 14  1  0  0  0  0
 14 15  1  0  0  0  0
 16 17  2  0  0  0  0
 16 18  1  0  0  0  0
 18 19  1  0  0  0  0
 18 20  1  0  0  0  0
 20 21  1  0  0  0  0
 20 22  1  0  0  0  0
 20 23  1  0  0  0  0
M  END
$$$$

  -OEChem-01062216093D

 23 22  0     1  0  0  0  0  0999 V2000
   -2.8238   -3.6635    1.2351 H   0  0  0  0  0  0  0  0  0  0  0  0
   -2.7500   -2.6208    0.9127 C   0  0  0  0  0  0  0  0  0  0  0  0
   -3.2748   -1.9932    1.6372 H   0  0  0  0  0  0  0  0  0  0  0  0
   -3.2316   -2.5201   -0.0631 H   0  0  0  0  0  0  0  0  0  0  0  0
   -1.2946   -2.2023    0.8199 C   0  0  0  0  0  0  0  0  0  0  0  0
   -0.4281   -3.0441    0.9792 O   0  0  0  0  0  0  0  0  0  0  0  0
   -0.9992   -0.8980    0.4677 N   0  0  0  0  0  0  0  0  0  0  0  0
   -1.8200   -0.3246    0.2906 H   0  0  0  0  0  0  0  0  0  0  0  0
    0.3020   -0.1693    0.4412 C   0  0  1  0  0  0  0  0  0  0  0  0
    0.0934    0.8354    0.8213 H   0  0  0  0  0  0  0  0  0  0  0  0
    1.4503   -0.7043    1.3185 C   0  0  0  0  0  0  0  0  0  0  0  0
    2.2865    0.0025    1.2923 H   0  0  0  0  0  0  0  0  0  0  0  0
    1.1090   -0.7731    2.3564 H   0  0  0  0  0  0  0  0  0  0  0  0
    1.9141   -1.9852    0.8921 O   0  0  0  0  0  0  0  0  0  0  0  0
    1.1582   -2.6243    0.9470 H   0  0  0  0  0  0  0  0  0  0  0  0
    0.8351    0.0195   -0.9906 C   0  0  0  0  0  0  0  0  0  0  0  0
    1.3897    1.0677   -1.2943 O   0  0  0  0  0  0  0  0  0  0  0  0
    0.5434   -0.9088   -1.9736 N   0  0  0  0  0  0  0  0  0  0  0  0
    0.2386   -1.8180   -1.6351 H   0  0  0  0  0  0  0  0  0  0  0  0
    1.0772   -0.8144   -3.3262 C   0  0  0  0  0  0  0  0  0  0  0  0
    2.1720   -0.8328   -3.3077 H   0  0  0  0  0  0  0  0  0  0  0  0
    0.7257   -1.6562   -3.9305 H   0  0  0  0  0  0  0  0  0  0  0  0
    0.7482    0.1138   -3.8051 H   0  0  0  0  0  0  0  0  0  0  0  0
  1  2  1  0  0  0  0
  2  3  1  0  0  0  0
  2  4  1  0  0  0  0
  2  5  1  0  0  0  0
  5  6  2  0  0  0  0
  5  7  1  0  0  0  0
  7  8  1  0  0  0  0
  7  9  1  0  0  0  0
  9 10  1  0  0  0  0
  9 11  1  0  0  0  0
  9 16  1  0  0  0  0
 11 12  1  0  0  0  0
 11 13  1  0  0  0  0
 11 14  1  0  0  0  0
 14 15  1  0  0  0  0
 16 17  2  0  0  0  0
 16 18  1  0  0  0  0
 18 19  1  0  0  0  0
 18 20  1  0  0  0  0
 20 21  1  0  0  0  0
 20 22  1  0  0  0  0
 20 23  1  0  0  0  0
M  END
$$$$

  -OEChem-01062216093D

 23 22  0     1  0  0  0  0  0999 V2000
   -2.8169   -3.6688    1.2530 H   0  0  0  0  0  0  0  0  0  0  0  0
   -2.7475   -2.6249    0.9332 C   0  0  0  0  0  0  0  0  0  0  0  0
   -3.2580   -2.0001    1.6703 H   0  0  0  0  0  0  0  0  0  0  0  0
   -3.2469   -2.5198   -0.0332 H   0  0  0  0  0  0  0  0  0  0  0  0
   -1.2929   -2.2090    0.8161 C   0  0  0  0  0  0  0  0  0  0  0  0
   -0.4274   -3.0540    0.9588 O   0  0  0  0  0  0  0  0  0  0  0  0
   -1.0011   -0.9030    0.4650 N   0  0  0  0  0  0  0  0  0  0  0  0
   -1.8251   -0.3249    0.3210 H   0  0  0  0  0  0  0  0  0  0  0  0
    0.2992   -0.1699    0.4357 C   0  0  1  0  0  0  0  0  0  0  0  0
    0.0877    0.8341    0.8152 H   0  0  0  0  0  0  0  0  0  0  0  0
    1.4452   -0.7056    1.3177 C   0  0  0  0  0  0  0  0  0  0  0  0
    2.2831   -0.0004    1.2964 H   0  0  0  0  0  0  0  0  0  0  0  0
    1.0990   -0.7735    2.3537 H   0  0  0  0  0  0  0  0  0  0  0  0
    1.9100   -1.9877    0.8956 O   0  0  0  0  0  0  0  0  0  0  0  0
    1.1501   -2.6235    0.9275 H   0  0  0  0  0  0  0  0  0  0  0  0
    0.8385    0.0292   -0.9942 C   0  0  0  0  0  0  0  0  0  0  0  0
    1.5962    0.9613   -1.2299 O   0  0  0  0  0  0  0  0  0  0  0  0
    0.3196   -0.7011   -2.0488 N   0  0  0  0  0  0  0  0  0  0  0  0
   -0.1779   -1.5481   -1.7893 H   0  0  0  0  0  0  0  0  0  0  0  0
    0.8275   -0.5823   -3.4098 C   0  0  0  0  0  0  0  0  0  0  0  0
    1.8914   -0.8397   -3.4448 H   0  0  0  0  0  0  0  0  0  0  0  0
    0.2841   -1.2588   -4.0762 H   0  0  0  0  0  0  0  0  0  0  0  0
    0.7000    0.4406   -3.7795 H   0  0  0  0  0  0  0  0  0  0  0  0
  1  2  1  0  0  0  0
  2  3  1  0  0  0  0
  2  4  1  0  0  0  0
  2  5  1  0  0  0  0
  5  6  2  0  0  0  0
  5  7  1  0  0  0  0
  7  8  1  0  0  0  0
  7  9  1  0  0  0  0
  9 10  1  0  0  0  0
  9 11  1  0  0  0  0
  9 16  1  0  0  0  0
 11 12  1  0  0  0  0
 11 13  1  0  0  0  0
 11 14  1  0  0  0  0
 14 15  1  0  0  0  0
 16 17  2  0  0  0  0
 16 18  1  0  0  0  0
 18 19  1  0  0  0  0
 18 20  1  0  0  0  0
 20 21  1  0  0  0  0
 20 22  1  0  0  0  0
 20 23  1  0  0  0  0
M  END
$$$$

  -OEChem-01062216093D

 23 22  0     1  0  0  0  0  0999 V2000
   -2.8081   -3.6689    1.2662 H   0  0  0  0  0  0  0  0  0  0  0  0
   -2.7392   -2.6276    0.9381 C   0  0  0  0  0  0  0  0  0  0  0  0
   -3.2395   -1.9959    1.6762 H   0  0  0  0  0  0  0  0  0  0  0  0
   -3.2491   -2.5281   -0.0232 H   0  0  0  0  0  0  0  0  0  0  0  0
   -1.2847   -2.2169    0.8017 C   0  0  0  0  0  0  0  0  0  0  0  0
   -0.4217   -3.0652    0.9355 O   0  0  0  0  0  0  0  0  0  0  0  0
   -0.9940   -0.9094    0.4536 N   0  0  0  0  0  0  0  0  0  0  0  0
   -1.8193   -0.3260    0.3432 H   0  0  0  0  0  0  0  0  0  0  0  0
    0.3064   -0.1741    0.4295 C   0  0  1  0  0  0  0  0  0  0  0  0
    0.0908    0.8305    0.8043 H   0  0  0  0  0  0  0  0  0  0  0  0
    1.4414   -0.7076    1.3305 C   0  0  0  0  0  0  0  0  0  0  0  0
    2.2811   -0.0044    1.3204 H   0  0  0  0  0  0  0  0  0  0  0  0
    1.0786   -0.7689    2.3612 H   0  0  0  0  0  0  0  0  0  0  0  0
    1.9113   -1.9938    0.9268 O   0  0  0  0  0  0  0  0  0  0  0  0
    1.1485   -2.6269    0.9344 H   0  0  0  0  0  0  0  0  0  0  0  0
    0.8536    0.0304   -0.9988 C   0  0  0  0  0  0  0  0  0  0  0  0
    1.7741    0.8133   -1.1938 O   0  0  0  0  0  0  0  0  0  0  0  0
    0.1526   -0.4522   -2.0904 N   0  0  0  0  0  0  0  0  0  0  0  0
   -0.5107   -1.1945   -1.8913 H   0  0  0  0  0  0  0  0  0  0  0  0
    0.6177   -0.2842   -3.4618 C   0  0  0  0  0  0  0  0  0  0  0  0
    1.6006   -0.7493   -3.5927 H   0  0  0  0  0  0  0  0  0  0  0  0
   -0.0837   -0.7524   -4.1591 H   0  0  0  0  0  0  0  0  0  0  0  0
    0.6947    0.7788   -3.7136 H   0  0  0  0  0  0  0  0  0  0  0  0
  1  2  1  0  0  0  0
  2  3  1  0  0  0  0
  2  4  1  0  0  0  0
  2  5  1  0  0  0  0
  5  6  2  0  0  0  0
  5  7  1  0  0  0  0
  7  8  1  0  0  0  0
  7  9  1  0  0  0  0
  9 10  1  0  0  0  0
  9 11  1  0  0  0  0
  9 16  1  0  0  0  0
 11 12  1  0  0  0  0
 11 13  1  0  0  0  0
 11 14  1  0  0  0  0
 14 15  1  0  0  0  0
 16 17  2  0  0  0  0
 16 18  1  0  0  0  0
 18 19  1  0  0  0  0
 18 20  1  0  0  0  0
 20 21  1  0  0  0  0
 20 22  1  0  0  0  0
 20 23  1  0  0  0  0
M  END
$$$$

  -OEChem-01062216093D

 23 22  0     1  0  0  0  0  0999 V2000
   -2.7991   -3.6666    1.2628 H   0  0  0  0  0  0  0  0  0  0  0  0
   -2.7282   -2.6278    0.9266 C   0  0  0  0  0  0  0  0  0  0  0  0
   -3.2273   -1.9894    1.6598 H   0  0  0  0  0  0  0  0  0  0  0  0
   -3.2377   -2.5354   -0.0356 H   0  0  0  0  0  0  0  0  0  0  0  0
   -1.2728   -2.2218    0.7864 C   0  0  0  0  0  0  0  0  0  0  0  0
   -0.4137   -3.0740    0.9189 O   0  0  0  0  0  0  0  0  0  0  0  0
   -0.9801   -0.9127    0.4440 N   0  0  0  0  0  0  0  0  0  0  0  0
   -1.8046   -0.3237    0.3639 H   0  0  0  0  0  0  0  0  0  0  0  0
    0.3222   -0.1802    0.4248 C   0  0  1  0  0  0  0  0  0  0  0  0
    0.1056    0.8256    0.7952 H   0  0  0  0  0  0  0  0  0  0  0  0
    1.4446   -0.7114    1.3456 C   0  0  0  0  0  0  0  0  0  0  0  0
    2.2869   -0.0115    1.3439 H   0  0  0  0  0  0  0  0  0  0  0  0
    1.0661   -0.7622    2.3713 H   0  0  0  0  0  0  0  0  0  0  0  0
    1.9167   -2.0035    0.9642 O   0  0  0  0  0  0  0  0  0  0  0  0
    1.1495   -2.6311    0.9475 H   0  0  0  0  0  0  0  0  0  0  0  0
    0.8683    0.0268   -1.0062 C   0  0  0  0  0  0  0  0  0  0  0  0
    1.9249    0.6166   -1.1899 O   0  0  0  0  0  0  0  0  0  0  0  0
    0.0352   -0.1666   -2.0953 N   0  0  0  0  0  0  0  0  0  0  0  0
   -0.7735   -0.7574   -1.9325 H   0  0  0  0  0  0  0  0  0  0  0  0
    0.4685    0.0544   -3.4702 C   0  0  0  0  0  0  0  0  0  0  0  0
    1.3265   -0.5829   -3.7092 H   0  0  0  0  0  0  0  0  0  0  0  0
   -0.3434   -0.1814   -4.1647 H   0  0  0  0  0  0  0  0  0  0  0  0
    0.7550    1.1008   -3.6192 H   0  0  0  0  0  0  0  0  0  0  0  0
  1  2  1  0  0  0  0
  2  3  1  0  0  0  0
  2  4  1  0  0  0  0
  2  5  1  0  0  0  0
  5  6  2  0  0  0  0
  5  7  1  0  0  0  0
  7  8  1  0  0  0  0
  7  9  1  0  0  0  0
  9 10  1  0  0  0  0
  9 11  1  0  0  0  0
  9 16  1  0  0  0  0
 11 12  1  0  0  0  0
 11 13  1  0  0  0  0
 11 14  1  0  0  0  0
 14 15  1  0  0  0  0
 16 17  2  0  0  0  0
 16 18  1  0  0  0  0
 18 19  1  0  0  0  0
 18 20  1  0  0  0  0
 20 21  1  0  0  0  0
 20 22  1  0  0  0  0
 20 23  1  0  0  0  0
M  END
$$$$

  -OEChem-01062216093D

 23 22  0     1  0  0  0  0  0999 V2000
   -2.7837   -3.6703    1.2585 H   0  0  0  0  0  0  0  0  0  0  0  0
   -2.7158   -2.6311    0.9231 C   0  0  0  0  0  0  0  0  0  0  0  0
   -3.2019   -1.9932    1.6653 H   0  0  0  0  0  0  0  0  0  0  0  0
   -3.2399   -2.5358   -0.0309 H   0  0  0  0  0  0  0  0  0  0  0  0
   -1.2617   -2.2287    0.7602 C   0  0  0  0  0  0  0  0  0  0  0  0
   -0.4042   -3.0851    0.8722 O   0  0  0  0  0  0  0  0  0  0  0  0
   -0.9694   -0.9174    0.4256 N   0  0  0  0  0  0  0  0  0  0  0  0
   -1.7926   -0.3230    0.3876 H   0  0  0  0  0  0  0  0  0  0  0  0
    0.3365   -0.1915    0.4127 C   0  0  1  0  0  0  0  0  0  0  0  0
    0.1182    0.8164    0.7761 H   0  0  0  0  0  0  0  0  0  0  0  0
    1.4423   -0.7137    1.3615 C   0  0  0  0  0  0  0  0  0  0  0  0
    2.2867   -0.0164    1.3635 H   0  0  0  0  0  0  0  0  0  0  0  0
    1.0446   -0.7441    2.3806 H   0  0  0  0  0  0  0  0  0  0  0  0
    1.9194   -2.0145    1.0190 O   0  0  0  0  0  0  0  0  0  0  0  0
    1.1489   -2.6357    0.9623 H   0  0  0  0  0  0  0  0  0  0  0  0
    0.8806    0.0191   -1.0204 C   0  0  0  0  0  0  0  0  0  0  0  0
    2.0373    0.3651   -1.2193 O   0  0  0  0  0  0  0  0  0  0  0  0
   -0.0130    0.1423   -2.0717 N   0  0  0  0  0  0  0  0  0  0  0  0
   -0.9381   -0.2435   -1.9187 H   0  0  0  0  0  0  0  0  0  0  0  0
    0.4082    0.4150   -3.4415 C   0  0  0  0  0  0  0  0  0  0  0  0
    1.0829   -0.3702   -3.7987 H   0  0  0  0  0  0  0  0  0  0  0  0
   -0.4616    0.4533   -4.1041 H   0  0  0  0  0  0  0  0  0  0  0  0
    0.9266    1.3781   -3.4997 H   0  0  0  0  0  0  0  0  0  0  0  0
  1  2  1  0  0  0  0
  2  3  1  0  0  0  0
  2  4  1  0  0  0  0
  2  5  1  0  0  0  0
  5  6  2  0  0  0  0
  5  7  1  0  0  0  0
  7  8  1  0  0  0  0
  7  9  1  0  0  0  0
  9 10  1  0  0  0  0
  9 11  1  0  0  0  0
  9 16  1  0  0  0  0
 11 12  1  0  0  0  0
 11 13  1  0  0  0  0
 11 14  1  0  0  0  0
 14 15  1  0  0  0  0
 16 17  2  0  0  0  0
 16 18  1  0  0  0  0
 18 19  1  0  0  0  0
 18 20  1  0  0  0  0
 20 21  1  0  0  0  0
 20 22  1  0  0  0  0
 20 23  1  0  0  0  0
M  END
$$$$

  -OEChem-01062216093D

 23 22  0     1  0  0  0  0  0999 V2000
   -2.7730   -3.6850    1.2061 H   0  0  0  0  0  0  0  0  0  0  0  0
   -2.7032   -2.6363    0.9019 C   0  0  0  0  0  0  0  0  0  0  0  0
   -3.1859   -2.0195    1.6638 H   0  0  0  0  0  0  0  0  0  0  0  0
   -3.2284   -2.5114   -0.0482 H   0  0  0  0  0  0  0  0  0  0  0  0
   -1.2484   -2.2331    0.7490 C   0  0  0  0  0  0  0  0  0  0  0  0
   -0.3906   -3.0879    0.8704 O   0  0  0  0  0  0  0  0  0  0  0  0
   -0.9558   -0.9204    0.4206 N   0  0  0  0  0  0  0  0  0  0  0  0
   -1.7796   -0.3281    0.3802 H   0  0  0  0  0  0  0  0  0  0  0  0
    0.3526   -0.2014    0.4061 C   0  0  1  0  0  0  0  0  0  0  0  0
    0.1352    0.8082    0.7651 H   0  0  0  0  0  0  0  0  0  0  0  0
    1.4497   -0.7103    1.3740 C   0  0  0  0  0  0  0  0  0  0  0  0
    2.2946   -0.0137    1.3671 H   0  0  0  0  0  0  0  0  0  0  0  0
    1.0430   -0.7180    2.3900 H   0  0  0  0  0  0  0  0  0  0  0  0
    1.9321   -2.0185    1.0697 O   0  0  0  0  0  0  0  0  0  0  0  0
    1.1610   -2.6356    0.9864 H   0  0  0  0  0  0  0  0  0  0  0  0
    0.8834    0.0112   -1.0327 C   0  0  0  0  0  0  0  0  0  0  0  0
    2.0778    0.0596   -1.2905 O   0  0  0  0  0  0  0  0  0  0  0  0
    0.0057    0.4519   -2.0103 N   0  0  0  0  0  0  0  0  0  0  0  0
   -0.9839    0.3483   -1.8182 H   0  0  0  0  0  0  0  0  0  0  0  0
    0.4232    0.7594   -3.3740 C   0  0  0  0  0  0  0  0  0  0  0  0
    0.8691   -0.1224   -3.8465 H   0  0  0  0  0  0  0  0  0  0  0  0
   -0.4373    1.0753   -3.9713 H   0  0  0  0  0  0  0  0  0  0  0  0
    1.1595    1.5703   -3.3764 H   0  0  0  0  0  0  0  0  0  0  0  0
  1  2  1  0  0  0  0
  2  3  1  0  0  0  0
  2  4  1  0  0  0  0
  2  5  1  0  0  0  0
  5  6  2  0  0  0  0
  5  7  1  0  0  0  0
  7  8  1  0  0  0  0
  7  9  1  0  0  0  0
  9 10  1  0  0  0  0
  9 11  1  0  0  0  0
  9 16  1  0  0  0  0
 11 12  1  0  0  0  0
 11 13  1  0  0  0  0
 11 14  1  0  0  0  0
 14 15  1  0  0  0  0
 16 17  2  0  0  0  0
 16 18  1  0  0  0  0
 18 19  1  0  0  0  0
 18 20  1  0  0  0  0
 20 21  1  0  0  0  0
 20 22  1  0  0  0  0
 20 23  1  0  0  0  0
M  END
$$$$

  -OEChem-01062216093D

 23 22  0     1  0  0  0  0  0999 V2000
   -2.7885   -3.6775    1.1551 H   0  0  0  0  0  0  0  0  0  0  0  0
   -2.7002   -2.6401    0.8193 C   0  0  0  0  0  0  0  0  0  0  0  0
   -3.2638   -2.0027    1.5046 H   0  0  0  0  0  0  0  0  0  0  0  0
   -3.1296   -2.5588   -0.1822 H   0  0  0  0  0  0  0  0  0  0  0  0
   -1.2419   -2.2206    0.7950 C   0  0  0  0  0  0  0  0  0  0  0  0
   -0.3923   -3.0576    1.0384 O   0  0  0  0  0  0  0  0  0  0  0  0
   -0.9368   -0.9113    0.4625 N   0  0  0  0  0  0  0  0  0  0  0  0
   -1.7556   -0.3385    0.2855 H   0  0  0  0  0  0  0  0  0  0  0  0
    0.3791   -0.2096    0.4194 C   0  0  1  0  0  0  0  0  0  0  0  0
    0.1761    0.8023    0.7800 H   0  0  0  0  0  0  0  0  0  0  0  0
    1.4890   -0.7087    1.3774 C   0  0  0  0  0  0  0  0  0  0  0  0
    2.3378   -0.0182    1.3346 H   0  0  0  0  0  0  0  0  0  0  0  0
    1.1020   -0.6894    2.4009 H   0  0  0  0  0  0  0  0  0  0  0  0
    1.9619   -2.0251    1.0981 O   0  0  0  0  0  0  0  0  0  0  0  0
    1.1861   -2.6398    1.0588 H   0  0  0  0  0  0  0  0  0  0  0  0
    0.8719   -0.0042   -1.0341 C   0  0  0  0  0  0  0  0  0  0  0  0
    1.9874   -0.3223   -1.4184 O   0  0  0  0  0  0  0  0  0  0  0  0
    0.0861    0.7345   -1.9049 N   0  0  0  0  0  0  0  0  0  0  0  0
   -0.8237    1.0399   -1.5798 H   0  0  0  0  0  0  0  0  0  0  0  0
    0.4915    1.0606   -3.2679 C   0  0  0  0  0  0  0  0  0  0  0  0
    0.6738    0.1462   -3.8424 H   0  0  0  0  0  0  0  0  0  0  0  0
   -0.2941    1.6331   -3.7702 H   0  0  0  0  0  0  0  0  0  0  0  0
    1.4072    1.6613   -3.2624 H   0  0  0  0  0  0  0  0  0  0  0  0
  1  2  1  0  0  0  0
  2  3  1  0  0  0  0
  2  4  1  0  0  0  0
  2  5  1  0  0  0  0
  5  6  2  0  0  0  0
  5  7  1  0  0  0  0
  7  8  1  0  0  0  0
  7  9  1  0  0  0  0
  9 10  1  0  0  0  0
  9 11  1  0  0  0  0
  9 16  1  0  0  0  0
 11 12  1  0  0  0  0
 11 13  1  0  0  0  0
 11 14  1  0  0  0  0
 14 15  1  0  0  0  0
 16 17  2  0  0  0  0
 16 18  1  0  0  0  0
 18 19  1  0  0  0  0
 18 20  1  0  0  0  0
 20 21  1  0  0  0  0
 20 22  1  0  0  0  0
 20 23  1  0  0  0  0
M  END
$$$$

  -OEChem-01062216093D

 23 22  0     1  0  0  0  0  0999 V2000
   -2.7833   -3.6724    1.0563 H   0  0  0  0  0  0  0  0  0  0  0  0
   -2.6816   -2.6351    0.7238 C   0  0  0  0  0  0  0  0  0  0  0  0
   -3.3201   -2.0039    1.3464 H   0  0  0  0  0  0  0  0  0  0  0  0
   -3.0118   -2.5669   -0.3156 H   0  0  0  0  0  0  0  0  0  0  0  0
   -1.2358   -2.1886    0.8385 C   0  0  0  0  0  0  0  0  0  0  0  0
   -0.4047   -2.9987    1.2071 O   0  0  0  0  0  0  0  0  0  0  0  0
   -0.9233   -0.8793    0.5135 N   0  0  0  0  0  0  0  0  0  0  0  0
   -1.7162   -0.3459    0.1716 H   0  0  0  0  0  0  0  0  0  0  0  0
    0.4013   -0.2006    0.4543 C   0  0  1  0  0  0  0  0  0  0  0  0
    0.2166    0.8087    0.8310 H   0  0  0  0  0  0  0  0  0  0  0  0
    1.5289   -0.7096    1.3847 C   0  0  0  0  0  0  0  0  0  0  0  0
    2.3814   -0.0256    1.3198 H   0  0  0  0  0  0  0  0  0  0  0  0
    1.1667   -0.6864    2.4174 H   0  0  0  0  0  0  0  0  0  0  0  0
    1.9876   -2.0280    1.0971 O   0  0  0  0  0  0  0  0  0  0  0  0
    1.2076   -2.6375    1.1014 H   0  0  0  0  0  0  0  0  0  0  0  0
    0.8594    0.0080   -1.0082 C   0  0  0  0  0  0  0  0  0  0  0  0
    1.7064   -0.6795   -1.5571 O   0  0  0  0  0  0  0  0  0  0  0  0
    0.2550    1.0061   -1.7566 N   0  0  0  0  0  0  0  0  0  0  0  0
   -0.4041    1.6180   -1.2877 H   0  0  0  0  0  0  0  0  0  0  0  0
    0.6154    1.2931   -3.1411 C   0  0  0  0  0  0  0  0  0  0  0  0
    0.4514    0.4118   -3.7703 H   0  0  0  0  0  0  0  0  0  0  0  0
    0.0033    2.1125   -3.5302 H   0  0  0  0  0  0  0  0  0  0  0  0
    1.6689    1.5842   -3.2110 H   0  0  0  0  0  0  0  0  0  0  0  0
  1  2  1  0  0  0  0
  2  3  1  0  0  0  0
  2  4  1  0  0  0  0
  2  5  1  0  0  0  0
  5  6  2  0  0  0  0
  5  7  1  0  0  0  0
  7  8  1  0  0  0  0
  7  9  1  0  0  0  0
  9 10  1  0  0  0  0
  9 11  1  0  0  0  0
  9 16  1  0  0  0  0
 11 12  1  0  0  0  0
 11 13  1  0  0  0  0
 11 14  1  0  0  0  0
 14 15  1  0  0  0  0
 16 17  2  0  0  0  0
 16 18  1  0  0  0  0
 18 19  1  0  0  0  0
 18 20  1  0  0  0  0
 20 21  1  0  0  0  0
 20 22  1  0  0  0  0
 20 23  1  0  0  0  0
M  END
$$$$

  -OEChem-01062216093D

 23 22  0     1  0  0  0  0  0999 V2000
   -2.7548   -3.6801    0.9644 H   0  0  0  0  0  0  0  0  0  0  0  0
   -2.6577   -2.6349    0.6564 C   0  0  0  0  0  0  0  0  0  0  0  0
   -3.3499   -2.0301    1.2469 H   0  0  0  0  0  0  0  0  0  0  0  0
   -2.9227   -2.5562   -0.4009 H   0  0  0  0  0  0  0  0  0  0  0  0
   -1.2336   -2.1562    0.8715 C   0  0  0  0  0  0  0  0  0  0  0  0
   -0.4195   -2.9399    1.3279 O   0  0  0  0  0  0  0  0  0  0  0  0
   -0.9228   -0.8453    0.5512 N   0  0  0  0  0  0  0  0  0  0  0  0
   -1.6880   -0.3450    0.1093 H   0  0  0  0  0  0  0  0  0  0  0  0
    0.4074   -0.1801    0.4964 C   0  0  1  0  0  0  0  0  0  0  0  0
    0.2319    0.8243    0.8896 H   0  0  0  0  0  0  0  0  0  0  0  0
    1.5495   -0.7081    1.3945 C   0  0  0  0  0  0  0  0  0  0  0  0
    2.4020   -0.0247    1.3269 H   0  0  0  0  0  0  0  0  0  0  0  0
    1.2078   -0.7067    2.4344 H   0  0  0  0  0  0  0  0  0  0  0  0
    1.9959   -2.0199    1.0654 O   0  0  0  0  0  0  0  0  0  0  0  0
    1.2165   -2.6284    1.1045 H   0  0  0  0  0  0  0  0  0  0  0  0
    0.8610    0.0283   -0.9658 C   0  0  0  0  0  0  0  0  0  0  0  0
    1.3169   -0.8790   -1.6456 O   0  0  0  0  0  0  0  0  0  0  0  0
    0.5177    1.2046   -1.6137 N   0  0  0  0  0  0  0  0  0  0  0  0
    0.1484    1.9647   -1.0519 H   0  0  0  0  0  0  0  0  0  0  0  0
    0.8282    1.4593   -3.0167 C   0  0  0  0  0  0  0  0  0  0  0  0
    0.3509    0.7107   -3.6580 H   0  0  0  0  0  0  0  0  0  0  0  0
    0.4637    2.4479   -3.3123 H   0  0  0  0  0  0  0  0  0  0  0  0
    1.9104    1.4253   -3.1818 H   0  0  0  0  0  0  0  0  0  0  0  0
  1  2  1  0  0  0  0
  2  3  1  0  0  0  0
  2  4  1  0  0  0  0
  2  5  1  0  0  0  0
  5  6  2  0  0  0  0
  5  7  1  0  0  0  0
  7  8  1  0  0  0  0
  7  9  1  0  0  0  0
  9 10  1  0  0  0  0
  9 11  1  0  0  0  0
  9 16  1  0  0  0  0
 11 12  1  0  0  0  0
 11 13  1  0  0  0  0
 11 14  1  0  0  0  0
 14 15  1  0  0  0  0
 16 17  2  0  0  0  0
 16 18  1  0  0  0  0
 18 19  1  0  0  0  0
 18 20  1  0  0  0  0
 20 21  1  0  0  0  0
 20 22  1  0  0  0  0
 20 23  1  0  0  0  0
M  END
$$$$

  -OEChem-01062216093D

 23 22  0     1  0  0  0  0  0999 V2000
   -2.7366   -3.6834    0.9248 H   0  0  0  0  0  0  0  0  0  0  0  0
   -2.6419   -2.6365    0.6221 C   0  0  0  0  0  0  0  0  0  0  0  0
   -3.3708   -2.0427    1.1787 H   0  0  0  0  0  0  0  0  0  0  0  0
   -2.8578   -2.5614   -0.4465 H   0  0  0  0  0  0  0  0  0  0  0  0
   -1.2380   -2.1343    0.9037 C   0  0  0  0  0  0  0  0  0  0  0  0
   -0.4390   -2.8955    1.4224 O   0  0  0  0  0  0  0  0  0  0  0  0
   -0.9299   -0.8244    0.5790 N   0  0  0  0  0  0  0  0  0  0  0  0
   -1.6703   -0.3554    0.0659 H   0  0  0  0  0  0  0  0  0  0  0  0
    0.4034   -0.1668    0.5270 C   0  0  1  0  0  0  0  0  0  0  0  0
    0.2327    0.8354    0.9278 H   0  0  0  0  0  0  0  0  0  0  0  0
    1.5556   -0.7126    1.3969 C   0  0  0  0  0  0  0  0  0  0  0  0
    2.4102   -0.0317    1.3305 H   0  0  0  0  0  0  0  0  0  0  0  0
    1.2318   -0.7349    2.4423 H   0  0  0  0  0  0  0  0  0  0  0  0
    1.9838   -2.0175    1.0215 O   0  0  0  0  0  0  0  0  0  0  0  0
    1.2074   -2.6255    1.1016 H   0  0  0  0  0  0  0  0  0  0  0  0
    0.8617    0.0341   -0.9337 C   0  0  0  0  0  0  0  0  0  0  0  0
    0.9690   -0.9133   -1.7003 O   0  0  0  0  0  0  0  0  0  0  0  0
    0.8147    1.3026   -1.4896 N   0  0  0  0  0  0  0  0  0  0  0  0
    0.7176    2.0908   -0.8573 H   0  0  0  0  0  0  0  0  0  0  0  0
    1.1139    1.5678   -2.8930 C   0  0  0  0  0  0  0  0  0  0  0  0
    0.4069    1.0421   -3.5435 H   0  0  0  0  0  0  0  0  0  0  0  0
    1.0396    2.6396   -3.0998 H   0  0  0  0  0  0  0  0  0  0  0  0
    2.1292    1.2375   -3.1373 H   0  0  0  0  0  0  0  0  0  0  0  0
  1  2  1  0  0  0  0
  2  3  1  0  0  0  0
  2  4  1  0  0  0  0
  2  5  1  0  0  0  0
  5  6  2  0  0  0  0
  5  7  1  0  0  0  0
  7  8  1  0  0  0  0
  7  9  1  0  0  0  0
  9 10  1  0  0  0  0
  9 11  1  0  0  0  0
  9 16  1  0  0  0  0
 11 12  1  0  0  0  0
 11 13  1  0  0  0  0
 11 14  1  0  0  0  0
 14 15  1  0  0  0  0
 16 17  2  0  0  0  0
 16 18  1  0  0  0  0
 18 19  1  0  0  0  0
 18 20  1  0  0  0  0
 20 21  1  0  0  0  0
 20 22  1  0  0  0  0
 20 23  1  0  0  0  0
M  END
$$$$

  -OEChem-01062216093D

 23 22  0     1  0  0  0  0  0999 V2000
   -2.7256   -3.6887    0.9173 H   0  0  0  0  0  0  0  0  0  0  0  0
   -2.6320   -2.6439    0.6071 C   0  0  0  0  0  0  0  0  0  0  0  0
   -3.3855   -2.0526    1.1327 H   0  0  0  0  0  0  0  0  0  0  0  0
   -2.8116   -2.5811   -0.4691 H   0  0  0  0  0  0  0  0  0  0  0  0
   -1.2439   -2.1232    0.9300 C   0  0  0  0  0  0  0  0  0  0  0  0
   -0.4528   -2.8702    1.4820 O   0  0  0  0  0  0  0  0  0  0  0  0
   -0.9381   -0.8149    0.5979 N   0  0  0  0  0  0  0  0  0  0  0  0
   -1.6590   -0.3714    0.0359 H   0  0  0  0  0  0  0  0  0  0  0  0
    0.3962   -0.1589    0.5457 C   0  0  1  0  0  0  0  0  0  0  0  0
    0.2266    0.8438    0.9458 H   0  0  0  0  0  0  0  0  0  0  0  0
    1.5528   -0.7140    1.4001 C   0  0  0  0  0  0  0  0  0  0  0  0
    2.4093   -0.0353    1.3348 H   0  0  0  0  0  0  0  0  0  0  0  0
    1.2387   -0.7496    2.4483 H   0  0  0  0  0  0  0  0  0  0  0  0
    1.9673   -2.0145    0.9955 O   0  0  0  0  0  0  0  0  0  0  0  0
    1.1952   -2.6235    1.1058 H   0  0  0  0  0  0  0  0  0  0  0  0
    0.8620    0.0349   -0.9131 C   0  0  0  0  0  0  0  0  0  0  0  0
    0.6918   -0.8480   -1.7448 O   0  0  0  0  0  0  0  0  0  0  0  0
    1.1201    1.3133   -1.3801 N   0  0  0  0  0  0  0  0  0  0  0  0
    1.2590    2.0456   -0.6908 H   0  0  0  0  0  0  0  0  0  0  0  0
    1.4338    1.6016   -2.7755 C   0  0  0  0  0  0  0  0  0  0  0  0
    0.5923    1.3309   -3.4221 H   0  0  0  0  0  0  0  0  0  0  0  0
    1.6379    2.6688   -2.9049 H   0  0  0  0  0  0  0  0  0  0  0  0
    2.3179    1.0391   -3.0939 H   0  0  0  0  0  0  0  0  0  0  0  0
  1  2  1  0  0  0  0
  2  3  1  0  0  0  0
  2  4  1  0  0  0  0
  2  5  1  0  0  0  0
  5  6  2  0  0  0  0
  5  7  1  0  0  0  0
  7  8  1  0  0  0  0
  7  9  1  0  0  0  0
  9 10  1  0  0  0  0
  9 11  1  0  0  0  0
  9 16  1  0  0  0  0
 11 12  1  0  0  0  0
 11 13  1  0  0  0  0
 11 14  1  0  0  0  0
 14 15  1  0  0  0  0
 16 17  2  0  0  0  0
 16 18  1  0  0  0  0
 18 19  1  0  0  0  0
 18 20  1  0  0  0  0
 20 21  1  0  0  0  0
 20 22  1  0  0  0  0
 20 23  1  0  0  0  0
M  END
$$$$

  -OEChem-01062216093D

 23 22  0     1  0  0  0  0  0999 V2000
   -2.7187   -3.6944    0.9121 H   0  0  0  0  0  0  0  0  0  0  0  0
   -2.6282   -2.6490    0.6035 C   0  0  0  0  0  0  0  0  0  0  0  0
   -3.3975   -2.0642    1.1133 H   0  0  0  0  0  0  0  0  0  0  0  0
   -2.7869   -2.5877   -0.4761 H   0  0  0  0  0  0  0  0  0  0  0  0
   -1.2516   -2.1158    0.9538 C   0  0  0  0  0  0  0  0  0  0  0  0
   -0.4659   -2.8535    1.5263 O   0  0  0  0  0  0  0  0  0  0  0  0
   -0.9471   -0.8091    0.6152 N   0  0  0  0  0  0  0  0  0  0  0  0
   -1.6519   -0.3879    0.0161 H   0  0  0  0  0  0  0  0  0  0  0  0
    0.3873   -0.1532    0.5578 C   0  0  1  0  0  0  0  0  0  0  0  0
    0.2213    0.8508    0.9568 H   0  0  0  0  0  0  0  0  0  0  0  0
    1.5473   -0.7183    1.3991 C   0  0  0  0  0  0  0  0  0  0  0  0
    2.4067   -0.0434    1.3332 H   0  0  0  0  0  0  0  0  0  0  0  0
    1.2425   -0.7633    2.4497 H   0  0  0  0  0  0  0  0  0  0  0  0
    1.9487   -2.0162    0.9725 O   0  0  0  0  0  0  0  0  0  0  0  0
    1.1821   -2.6262    1.1122 H   0  0  0  0  0  0  0  0  0  0  0  0
    0.8556    0.0367   -0.9008 C   0  0  0  0  0  0  0  0  0  0  0  0
    0.4601   -0.7179   -1.7824 O   0  0  0  0  0  0  0  0  0  0  0  0
    1.4098    1.2456   -1.2870 N   0  0  0  0  0  0  0  0  0  0  0  0
    1.7500    1.8589   -0.5528 H   0  0  0  0  0  0  0  0  0  0  0  0
    1.7662    1.5506   -2.6681 C   0  0  0  0  0  0  0  0  0  0  0  0
    0.8775    1.5302   -3.3077 H   0  0  0  0  0  0  0  0  0  0  0  0
    2.2131    2.5473   -2.7325 H   0  0  0  0  0  0  0  0  0  0  0  0
    2.4899    0.8212   -3.0472 H   0  0  0  0  0  0  0  0  0  0  0  0
  1  2  1  0  0  0  0
  2  3  1  0  0  0  0
  2  4  1  0  0  0  0
  2  5  1  0  0  0  0
  5  6  2  0  0  0  0
  5  7  1  0  0  0  0
  7  8  1  0  0  0  0
  7  9  1  0  0  0  0
  9 10  1  0  0  0  0
  9 11  1  0  0  0  0
  9 16  1  0  0  0  0
 11 12  1  0  0  0  0
 11 13  1  0  0  0  0
 11 14  1  0  0  0  0
 14 15  1  0  0  0  0
 16 17  2  0  0  0  0
 16 18  1  0  0  0  0
 18 19  1  0  0  0  0
 18 20  1  0  0  0  0
 20 21  1  0  0  0  0
 20 22  1  0  0  0  0
 20 23  1  0  0  0  0
M  END
$$$$

  -OEChem-01062216093D

 23 22  0     1  0  0  0  0  0999 V2000
   -2.7188   -3.6980    0.9119 H   0  0  0  0  0  0  0  0  0  0  0  0
   -2.6294   -2.6518    0.6054 C   0  0  0  0  0  0  0  0  0  0  0  0
   -3.4017   -2.0695    1.1136 H   0  0  0  0  0  0  0  0  0  0  0  0
   -2.7850   -2.5889   -0.4746 H   0  0  0  0  0  0  0  0  0  0  0  0
   -1.2552   -2.1162    0.9616 C   0  0  0  0  0  0  0  0  0  0  0  0
   -0.4687   -2.8547    1.5326 O   0  0  0  0  0  0  0  0  0  0  0  0
   -0.9514   -0.8089    0.6255 N   0  0  0  0  0  0  0  0  0  0  0  0
   -1.6480   -0.3959    0.0105 H   0  0  0  0  0  0  0  0  0  0  0  0
    0.3802   -0.1462    0.5698 C   0  0  1  0  0  0  0  0  0  0  0  0
    0.2161    0.8574    0.9708 H   0  0  0  0  0  0  0  0  0  0  0  0
    1.5407   -0.7215    1.4038 C   0  0  0  0  0  0  0  0  0  0  0  0
    2.4016   -0.0475    1.3484 H   0  0  0  0  0  0  0  0  0  0  0  0
    1.2364   -0.7811    2.4539 H   0  0  0  0  0  0  0  0  0  0  0  0
    1.9378   -2.0141    0.9568 O   0  0  0  0  0  0  0  0  0  0  0  0
    1.1760   -2.6274    1.1088 H   0  0  0  0  0  0  0  0  0  0  0  0
    0.8482    0.0476   -0.8891 C   0  0  0  0  0  0  0  0  0  0  0  0
    0.2775   -0.5384   -1.8034 O   0  0  0  0  0  0  0  0  0  0  0  0
    1.6681    1.1152   -1.2135 N   0  0  0  0  0  0  0  0  0  0  0  0
    2.1660    1.5660   -0.4519 H   0  0  0  0  0  0  0  0  0  0  0  0
    2.0804    1.4085   -2.5814 C   0  0  0  0  0  0  0  0  0  0  0  0
    1.2079    1.6190   -3.2091 H   0  0  0  0  0  0  0  0  0  0  0  0
    2.7360    2.2844   -2.5997 H   0  0  0  0  0  0  0  0  0  0  0  0
    2.6249    0.5590   -3.0074 H   0  0  0  0  0  0  0  0  0  0  0  0
  1  2  1  0  0  0  0
  2  3  1  0  0  0  0
  2  4  1  0  0  0  0
  2  5  1  0  0  0  0
  5  6  2  0  0  0  0
  5  7  1  0  0  0  0
  7  8  1  0  0  0  0
  7  9  1  0  0  0  0
  9 10  1  0  0  0  0
  9 11  1  0  0  0  0
  9 16  1  0  0  0  0
 11 12  1  0  0  0  0
 11 13  1  0  0  0  0
 11 14  1  0  0  0  0
 14 15  1  0  0  0  0
 16 17  2  0  0  0  0
 16 18  1  0  0  0  0
 18 19  1  0  0  0  0
 18 20  1  0  0  0  0
 20 21  1  0  0  0  0
 20 22  1  0  0  0  0
 20 23  1  0  0  0  0
M  END
$$$$

  -OEChem-01062216093D

 23 22  0     1  0  0  0  0  0999 V2000
   -2.7176   -3.7003    0.8952 H   0  0  0  0  0  0  0  0  0  0  0  0
   -2.6275   -2.6518    0.5969 C   0  0  0  0  0  0  0  0  0  0  0  0
   -3.4015   -2.0733    1.1069 H   0  0  0  0  0  0  0  0  0  0  0  0
   -2.7797   -2.5806   -0.4831 H   0  0  0  0  0  0  0  0  0  0  0  0
   -1.2546   -2.1184    0.9613 C   0  0  0  0  0  0  0  0  0  0  0  0
   -0.4690   -2.8612    1.5280 O   0  0  0  0  0  0  0  0  0  0  0  0
   -0.9486   -0.8104    0.6306 N   0  0  0  0  0  0  0  0  0  0  0  0
   -1.6388   -0.3980    0.0070 H   0  0  0  0  0  0  0  0  0  0  0  0
    0.3796   -0.1399    0.5843 C   0  0  1  0  0  0  0  0  0  0  0  0
    0.2140    0.8644    0.9833 H   0  0  0  0  0  0  0  0  0  0  0  0
    1.5336   -0.7201    1.4249 C   0  0  0  0  0  0  0  0  0  0  0  0
    2.3950   -0.0462    1.3866 H   0  0  0  0  0  0  0  0  0  0  0  0
    1.2185   -0.7889    2.4713 H   0  0  0  0  0  0  0  0  0  0  0  0
    1.9332   -2.0094    0.9703 O   0  0  0  0  0  0  0  0  0  0  0  0
    1.1738   -2.6259    1.1241 H   0  0  0  0  0  0  0  0  0  0  0  0
    0.8491    0.0557   -0.8752 C   0  0  0  0  0  0  0  0  0  0  0  0
    0.1438   -0.3317   -1.8022 O   0  0  0  0  0  0  0  0  0  0  0  0
    1.8925    0.9184   -1.1648 N   0  0  0  0  0  0  0  0  0  0  0  0
    2.5118    1.1628   -0.3977 H   0  0  0  0  0  0  0  0  0  0  0  0
    2.3398    1.1875   -2.5266 C   0  0  0  0  0  0  0  0  0  0  0  0
    1.5316    1.6338   -3.1155 H   0  0  0  0  0  0  0  0  0  0  0  0
    3.1829    1.8850   -2.5169 H   0  0  0  0  0  0  0  0  0  0  0  0
    2.6615    0.2612   -3.0142 H   0  0  0  0  0  0  0  0  0  0  0  0
  1  2  1  0  0  0  0
  2  3  1  0  0  0  0
  2  4  1  0  0  0  0
  2  5  1  0  0  0  0
  5  6  2  0  0  0  0
  5  7  1  0  0  0  0
  7  8  1  0  0  0  0
  7  9  1  0  0  0  0
  9 10  1  0  0  0  0
  9 11  1  0  0  0  0
  9 16  1  0  0  0  0
 11 12  1  0  0  0  0
 11 13  1  0  0  0  0
 11 14  1  0  0  0  0
 14 15  1  0  0  0  0
 16 17  2  0  0  0  0
 16 18  1  0  0  0  0
 18 19  1  0  0  0  0
 18 20  1  0  0  0  0
 20 21  1  0  0  0  0
 20 22  1  0  0  0  0
 20 23  1  0  0  0  0
M  END
$$$$

  -OEChem-01062216093D

 23 22  0     1  0  0  0  0  0999 V2000
   -2.7519   -3.6871    0.9028 H   0  0  0  0  0  0  0  0  0  0  0  0
   -2.6548   -2.6359    0.6169 C   0  0  0  0  0  0  0  0  0  0  0  0
   -3.3672   -2.0465    1.1990 H   0  0  0  0  0  0  0  0  0  0  0  0
   -2.8919   -2.5376   -0.4454 H   0  0  0  0  0  0  0  0  0  0  0  0
   -1.2422   -2.1485    0.8791 C   0  0  0  0  0  0  0  0  0  0  0  0
   -0.4204   -2.9382    1.3168 O   0  0  0  0  0  0  0  0  0  0  0  0
   -0.9276   -0.8388    0.5643 N   0  0  0  0  0  0  0  0  0  0  0  0
   -1.6410   -0.3730    0.0050 H   0  0  0  0  0  0  0  0  0  0  0  0
    0.3931   -0.1553    0.5478 C   0  0  1  0  0  0  0  0  0  0  0  0
    0.2760    0.7305    1.1779 H   0  0  0  0  0  0  0  0  0  0  0  0
    1.6057   -0.9023    1.1336 C   0  0  0  0  0  0  0  0  0  0  0  0
    2.4728   -0.2355    1.1656 H   0  0  0  0  0  0  0  0  0  0  0  0
    1.3924   -1.2019    2.1649 H   0  0  0  0  0  0  0  0  0  0  0  0
    1.9287   -2.0520    0.3565 O   0  0  0  0  0  0  0  0  0  0  0  0
    1.2173   -2.7170    0.5140 H   0  0  0  0  0  0  0  0  0  0  0  0
    0.7070    0.3805   -0.8678 C   0  0  0  0  0  0  0  0  0  0  0  0
   -0.1857    0.4104   -1.7106 O   0  0  0  0  0  0  0  0  0  0  0  0
    1.8866    1.0545   -1.1332 N   0  0  0  0  0  0  0  0  0  0  0  0
    2.6508    0.8993   -0.4817 H   0  0  0  0  0  0  0  0  0  0  0  0
    2.2047    1.5999   -2.4475 C   0  0  0  0  0  0  0  0  0  0  0  0
    1.4562    2.3405   -2.7483 H   0  0  0  0  0  0  0  0  0  0  0  0
    3.1827    2.0903   -2.4258 H   0  0  0  0  0  0  0  0  0  0  0  0
    2.2328    0.8020   -3.1970 H   0  0  0  0  0  0  0  0  0  0  0  0
  1  2  1  0  0  0  0
  2  3  1  0  0  0  0
  2  4  1  0  0  0  0
  2  5  1  0  0  0  0
  5  6  2  0  0  0  0
  5  7  1  0  0  0  0
  7  8  1  0  0  0  0
  7  9  1  0  0  0  0
  9 10  1  0  0  0  0
  9 11  1  0  0  0  0
  9 16  1  0  0  0  0
 11 12  1  0  0  0  0
 11 13  1  0  0  0  0
 11 14  1  0  0  0  0
 14 15  1  0  0  0  0
 16 17  2  0  0  0  0
 16 18  1  0  0  0  0
 18 19  1  0  0  0  0
 18 20  1  0  0  0  0
 20 21  1  0  0  0  0
 20 22  1  0  0  0  0
 20 23  1  0  0  0  0
M  END
$$$$

  -OEChem-01062216093D

 23 22  0     1  0  0  0  0  0999 V2000
   -2.7612   -3.6792    0.8893 H   0  0  0  0  0  0  0  0  0  0  0  0
   -2.6603   -2.6253    0.6148 C   0  0  0  0  0  0  0  0  0  0  0  0
   -3.3549   -2.0371    1.2194 H   0  0  0  0  0  0  0  0  0  0  0  0
   -2.9191   -2.5109   -0.4408 H   0  0  0  0  0  0  0  0  0  0  0  0
   -1.2381   -2.1539    0.8540 C   0  0  0  0  0  0  0  0  0  0  0  0
   -0.4136   -2.9566    1.2623 O   0  0  0  0  0  0  0  0  0  0  0  0
   -0.9173   -0.8432    0.5509 N   0  0  0  0  0  0  0  0  0  0  0  0
   -1.6397   -0.3518    0.0260 H   0  0  0  0  0  0  0  0  0  0  0  0
    0.4017   -0.1576    0.5558 C   0  0  1  0  0  0  0  0  0  0  0  0
    0.2759    0.7283    1.1842 H   0  0  0  0  0  0  0  0  0  0  0  0
    1.6075   -0.9014    1.1611 C   0  0  0  0  0  0  0  0  0  0  0  0
    2.4712   -0.2313    1.2127 H   0  0  0  0  0  0  0  0  0  0  0  0
    1.3754   -1.2043    2.1875 H   0  0  0  0  0  0  0  0  0  0  0  0
    1.9469   -2.0501    0.3894 O   0  0  0  0  0  0  0  0  0  0  0  0
    1.2305   -2.7147    0.5305 H   0  0  0  0  0  0  0  0  0  0  0  0
    0.7212    0.3804   -0.8578 C   0  0  0  0  0  0  0  0  0  0  0  0
   -0.2075    0.6163   -1.6257 O   0  0  0  0  0  0  0  0  0  0  0  0
    1.9966    0.7829   -1.2129 N   0  0  0  0  0  0  0  0  0  0  0  0
    2.7514    0.3960   -0.6510 H   0  0  0  0  0  0  0  0  0  0  0  0
    2.3223    1.2818   -2.5435 C   0  0  0  0  0  0  0  0  0  0  0  0
    1.7193    2.1643   -2.7824 H   0  0  0  0  0  0  0  0  0  0  0  0
    3.3781    1.5655   -2.5918 H   0  0  0  0  0  0  0  0  0  0  0  0
    2.1341    0.5112   -3.2985 H   0  0  0  0  0  0  0  0  0  0  0  0
  1  2  1  0  0  0  0
  2  3  1  0  0  0  0
  2  4  1  0  0  0  0
  2  5  1  0  0  0  0
  5  6  2  0  0  0  0
  5  7  1  0  0  0  0
  7  8  1  0  0  0  0
  7  9  1  0  0  0  0
  9 10  1  0  0  0  0
  9 11  1  0  0  0  0
  9 16  1  0  0  0  0
 11 12  1  0  0  0  0
 11 13  1  0  0  0  0
 11 14  1  0  0  0  0
 14 15  1  0  0  0  0
 16 17  2  0  0  0  0
 16 18  1  0  0  0  0
 18 19  1  0  0  0  0
 18 20  1  0  0  0  0
 20 21  1  0  0  0  0
 20 22  1  0  0  0  0
 20 23  1  0  0  0  0
M  END
$$$$

  -OEChem-01062216093D

 23 22  0     1  0  0  0  0  0999 V2000
   -2.7665   -3.6718    0.8850 H   0  0  0  0  0  0  0  0  0  0  0  0
   -2.6638   -2.6165    0.6164 C   0  0  0  0  0  0  0  0  0  0  0  0
   -3.3438   -2.0286    1.2377 H   0  0  0  0  0  0  0  0  0  0  0  0
   -2.9409   -2.4927   -0.4335 H   0  0  0  0  0  0  0  0  0  0  0  0
   -1.2341   -2.1568    0.8338 C   0  0  0  0  0  0  0  0  0  0  0  0
   -0.4066   -2.9692    1.2161 O   0  0  0  0  0  0  0  0  0  0  0  0
   -0.9078   -0.8458    0.5375 N   0  0  0  0  0  0  0  0  0  0  0  0
   -1.6419   -0.3305    0.0535 H   0  0  0  0  0  0  0  0  0  0  0  0
    0.4104   -0.1600    0.5574 C   0  0  1  0  0  0  0  0  0  0  0  0
    0.2783    0.7268    1.1832 H   0  0  0  0  0  0  0  0  0  0  0  0
    1.6114   -0.8990    1.1796 C   0  0  0  0  0  0  0  0  0  0  0  0
    2.4714   -0.2243    1.2387 H   0  0  0  0  0  0  0  0  0  0  0  0
    1.3673   -1.1993    2.2040 H   0  0  0  0  0  0  0  0  0  0  0  0
    1.9649   -2.0503    0.4166 O   0  0  0  0  0  0  0  0  0  0  0  0
    1.2457   -2.7149    0.5485 H   0  0  0  0  0  0  0  0  0  0  0  0
    0.7356    0.3771   -0.8542 C   0  0  0  0  0  0  0  0  0  0  0  0
   -0.1844    0.8052   -1.5448 O   0  0  0  0  0  0  0  0  0  0  0  0
    2.0344    0.4968   -1.3144 N   0  0  0  0  0  0  0  0  0  0  0  0
    2.7196   -0.0779   -0.8253 H   0  0  0  0  0  0  0  0  0  0  0  0
    2.3534    0.9458   -2.6642 C   0  0  0  0  0  0  0  0  0  0  0  0
    1.9341    1.9406   -2.8486 H   0  0  0  0  0  0  0  0  0  0  0  0
    3.4382    1.0022   -2.7963 H   0  0  0  0  0  0  0  0  0  0  0  0
    1.9477    0.2494   -3.4054 H   0  0  0  0  0  0  0  0  0  0  0  0
  1  2  1  0  0  0  0
  2  3  1  0  0  0  0
  2  4  1  0  0  0  0
  2  5  1  0  0  0  0
  5  6  2  0  0  0  0
  5  7  1  0  0  0  0
  7  8  1  0  0  0  0
  7  9  1  0  0  0  0
  9 10  1  0  0  0  0
  9 11  1  0  0  0  0
  9 16  1  0  0  0  0
 11 12  1  0  0  0  0
 11 13  1  0  0  0  0
 11 14  1  0  0  0  0
 14 15  1  0  0  0  0
 16 17  2  0  0  0  0
 16 18  1  0  0  0  0
 18 19  1  0  0  0  0
 18 20  1  0  0  0  0
 20 21  1  0  0  0  0
 20 22  1  0  0  0  0
 20 23  1  0  0  0  0
M  END
$$$$

  -OEChem-01062216093D

 23 22  0     1  0  0  0  0  0999 V2000
   -2.7736   -3.6629    0.8871 H   0  0  0  0  0  0  0  0  0  0  0  0
   -2.6670   -2.6070    0.6223 C   0  0  0  0  0  0  0  0  0  0  0  0
   -3.3299   -2.0166    1.2596 H   0  0  0  0  0  0  0  0  0  0  0  0
   -2.9625   -2.4749   -0.4216 H   0  0  0  0  0  0  0  0  0  0  0  0
   -1.2299   -2.1604    0.8149 C   0  0  0  0  0  0  0  0  0  0  0  0
   -0.3998   -2.9820    1.1706 O   0  0  0  0  0  0  0  0  0  0  0  0
   -0.9005   -0.8494    0.5229 N   0  0  0  0  0  0  0  0  0  0  0  0
   -1.6479   -0.3141    0.0837 H   0  0  0  0  0  0  0  0  0  0  0  0
    0.4162   -0.1627    0.5518 C   0  0  1  0  0  0  0  0  0  0  0  0
    0.2779    0.7242    1.1766 H   0  0  0  0  0  0  0  0  0  0  0  0
    1.6133   -0.8997    1.1863 C   0  0  0  0  0  0  0  0  0  0  0  0
    2.4708   -0.2214    1.2450 H   0  0  0  0  0  0  0  0  0  0  0  0
    1.3630   -1.1948    2.2106 H   0  0  0  0  0  0  0  0  0  0  0  0
    1.9782   -2.0555    0.4323 O   0  0  0  0  0  0  0  0  0  0  0  0
    1.2563   -2.7195    0.5571 H   0  0  0  0  0  0  0  0  0  0  0  0
    0.7489    0.3757   -0.8560 C   0  0  0  0  0  0  0  0  0  0  0  0
   -0.1256    0.9750   -1.4729 O   0  0  0  0  0  0  0  0  0  0  0  0
    1.9982    0.2219   -1.4275 N   0  0  0  0  0  0  0  0  0  0  0  0
    2.5911   -0.4796   -0.9809 H   0  0  0  0  0  0  0  0  0  0  0  0
    2.2984    0.6137   -2.7986 C   0  0  0  0  0  0  0  0  0  0  0  0
    2.0787    1.6755   -2.9522 H   0  0  0  0  0  0  0  0  0  0  0  0
    3.3585    0.4486   -3.0139 H   0  0  0  0  0  0  0  0  0  0  0  0
    1.7036    0.0251   -3.5048 H   0  0  0  0  0  0  0  0  0  0  0  0
  1  2  1  0  0  0  0
  2  3  1  0  0  0  0
  2  4  1  0  0  0  0
  2  5  1  0  0  0  0
  5  6  2  0  0  0  0
  5  7  1  0  0  0  0
  7  8  1  0  0  0  0
  7  9  1  0  0  0  0
  9 10  1  0  0  0  0
  9 11  1  0  0  0  0
  9 16  1  0  0  0  0
 11 12  1  0  0  0  0
 11 13  1  0  0  0  0
 11 14  1  0  0  0  0
 14 15  1  0  0  0  0
 16 17  2  0  0  0  0
 16 18  1  0  0  0  0
 18 19  1  0  0  0  0
 18 20  1  0  0  0  0
 20 21  1  0  0  0  0
 20 22  1  0  0  0  0
 20 23  1  0  0  0  0
M  END
$$$$

  -OEChem-01062216093D

 23 22  0     1  0  0  0  0  0999 V2000
   -2.7908   -3.6502    0.9261 H   0  0  0  0  0  0  0  0  0  0  0  0
   -2.6783   -2.5981    0.6491 C   0  0  0  0  0  0  0  0  0  0  0  0
   -3.3149   -1.9943    1.3004 H   0  0  0  0  0  0  0  0  0  0  0  0
   -3.0031   -2.4711   -0.3866 H   0  0  0  0  0  0  0  0  0  0  0  0
   -1.2304   -2.1684    0.7955 C   0  0  0  0  0  0  0  0  0  0  0  0
   -0.3990   -3.0009    1.1214 O   0  0  0  0  0  0  0  0  0  0  0  0
   -0.8967   -0.8583    0.5028 N   0  0  0  0  0  0  0  0  0  0  0  0
   -1.6583   -0.3043    0.1151 H   0  0  0  0  0  0  0  0  0  0  0  0
    0.4200   -0.1711    0.5321 C   0  0  1  0  0  0  0  0  0  0  0  0
    0.2789    0.7168    1.1551 H   0  0  0  0  0  0  0  0  0  0  0  0
    1.6107   -0.9090    1.1797 C   0  0  0  0  0  0  0  0  0  0  0  0
    2.4696   -0.2318    1.2332 H   0  0  0  0  0  0  0  0  0  0  0  0
    1.3537   -1.1922    2.2057 H   0  0  0  0  0  0  0  0  0  0  0  0
    1.9817   -2.0749    0.4414 O   0  0  0  0  0  0  0  0  0  0  0  0
    1.2538   -2.7342    0.5628 H   0  0  0  0  0  0  0  0  0  0  0  0
    0.7643    0.3695   -0.8710 C   0  0  0  0  0  0  0  0  0  0  0  0
   -0.0297    1.1311   -1.4115 O   0  0  0  0  0  0  0  0  0  0  0  0
    1.8938   -0.0326   -1.5579 N   0  0  0  0  0  0  0  0  0  0  0  0
    2.4081   -0.8090   -1.1356 H   0  0  0  0  0  0  0  0  0  0  0  0
    2.1662    0.3247   -2.9438 C   0  0  0  0  0  0  0  0  0  0  0  0
    2.1442    1.4120   -3.0723 H   0  0  0  0  0  0  0  0  0  0  0  0
    3.1572   -0.0350   -3.2370 H   0  0  0  0  0  0  0  0  0  0  0  0
    1.4215   -0.1247   -3.6087 H   0  0  0  0  0  0  0  0  0  0  0  0
  1  2  1  0  0  0  0
  2  3  1  0  0  0  0
  2  4  1  0  0  0  0
  2  5  1  0  0  0  0
  5  6  2  0  0  0  0
  5  7  1  0  0  0  0
  7  8  1  0  0  0  0
  7  9  1  0  0  0  0
  9 10  1  0  0  0  0
  9 11  1  0  0  0  0
  9 16  1  0  0  0  0
 11 12  1  0  0  0  0
 11 13  1  0  0  0  0
 11 14  1  0  0  0  0
 14 15  1  0  0  0  0
 16 17  2  0  0  0  0
 16 18  1  0  0  0  0
 18 19  1  0  0  0  0
 18 20  1  0  0  0  0
 20 21  1  0  0  0  0
 20 22  1  0  0  0  0
 20 23  1  0  0  0  0
M  END
$$$$

  -OEChem-01062216093D

 23 22  0     1  0  0  0  0  0999 V2000
   -2.7990   -3.6460    0.9666 H   0  0  0  0  0  0  0  0  0  0  0  0
   -2.6864   -2.5973    0.6770 C   0  0  0  0  0  0  0  0  0  0  0  0
   -3.3113   -1.9842    1.3310 H   0  0  0  0  0  0  0  0  0  0  0  0
   -3.0253   -2.4797   -0.3554 H   0  0  0  0  0  0  0  0  0  0  0  0
   -1.2347   -2.1724    0.7983 C   0  0  0  0  0  0  0  0  0  0  0  0
   -0.4023   -3.0076    1.1145 O   0  0  0  0  0  0  0  0  0  0  0  0
   -0.9002   -0.8657    0.4901 N   0  0  0  0  0  0  0  0  0  0  0  0
   -1.6725   -0.3037    0.1375 H   0  0  0  0  0  0  0  0  0  0  0  0
    0.4170   -0.1784    0.5073 C   0  0  1  0  0  0  0  0  0  0  0  0
    0.2770    0.7150    1.1230 H   0  0  0  0  0  0  0  0  0  0  0  0
    1.6059   -0.9113    1.1645 C   0  0  0  0  0  0  0  0  0  0  0  0
    2.4665   -0.2352    1.2034 H   0  0  0  0  0  0  0  0  0  0  0  0
    1.3503   -1.1766    2.1957 H   0  0  0  0  0  0  0  0  0  0  0  0
    1.9767   -2.0906    0.4462 O   0  0  0  0  0  0  0  0  0  0  0  0
    1.2485   -2.7475    0.5819 H   0  0  0  0  0  0  0  0  0  0  0  0
    0.7655    0.3496   -0.8983 C   0  0  0  0  0  0  0  0  0  0  0  0
    0.0893    1.2602   -1.3612 O   0  0  0  0  0  0  0  0  0  0  0  0
    1.7067   -0.2663   -1.6993 N   0  0  0  0  0  0  0  0  0  0  0  0
    2.1682   -1.0851   -1.2963 H   0  0  0  0  0  0  0  0  0  0  0  0
    1.9619    0.0927   -3.0876 C   0  0  0  0  0  0  0  0  0  0  0  0
    2.2113    1.1558   -3.1700 H   0  0  0  0  0  0  0  0  0  0  0  0
    2.8023   -0.4890   -3.4783 H   0  0  0  0  0  0  0  0  0  0  0  0
    1.0806   -0.1123   -3.7040 H   0  0  0  0  0  0  0  0  0  0  0  0
  1  2  1  0  0  0  0
  2  3  1  0  0  0  0
  2  4  1  0  0  0  0
  2  5  1  0  0  0  0
  5  6  2  0  0  0  0
  5  7  1  0  0  0  0
  7  8  1  0  0  0  0
  7  9  1  0  0  0  0
  9 10  1  0  0  0  0
  9 11  1  0  0  0  0
  9 16  1  0  0  0  0
 11 12  1  0  0  0  0
 11 13  1  0  0  0  0
 11 14  1  0  0  0  0
 14 15  1  0  0  0  0
 16 17  2  0  0  0  0
 16 18  1  0  0  0  0
 18 19  1  0  0  0  0
 18 20  1  0  0  0  0
 20 21  1  0  0  0  0
 20 22  1  0  0  0  0
 20 23  1  0  0  0  0
M  END
$$$$

  -OEChem-01062216093D

 23 22  0     1  0  0  0  0  0999 V2000
   -2.8057   -3.6577    1.0577 H   0  0  0  0  0  0  0  0  0  0  0  0
   -2.7047   -2.6115    0.7551 C   0  0  0  0  0  0  0  0  0  0  0  0
   -3.2989   -1.9923    1.4315 H   0  0  0  0  0  0  0  0  0  0  0  0
   -3.0893   -2.5016   -0.2618 H   0  0  0  0  0  0  0  0  0  0  0  0
   -1.2488   -2.1876    0.8080 C   0  0  0  0  0  0  0  0  0  0  0  0
   -0.4039   -3.0198    1.0979 O   0  0  0  0  0  0  0  0  0  0  0  0
   -0.9276   -0.8848    0.4695 N   0  0  0  0  0  0  0  0  0  0  0  0
   -1.7180   -0.3223    0.1620 H   0  0  0  0  0  0  0  0  0  0  0  0
    0.3845   -0.1866    0.4615 C   0  0  1  0  0  0  0  0  0  0  0  0
    0.2441    0.7148    1.0659 H   0  0  0  0  0  0  0  0  0  0  0  0
    1.5859   -0.9016    1.1140 C   0  0  0  0  0  0  0  0  0  0  0  0
    2.4415   -0.2185    1.1316 H   0  0  0  0  0  0  0  0  0  0  0  0
    1.3451   -1.1538    2.1520 H   0  0  0  0  0  0  0  0  0  0  0  0
    1.9576   -2.0882    0.4080 O   0  0  0  0  0  0  0  0  0  0  0  0
    1.2376   -2.7499    0.5638 H   0  0  0  0  0  0  0  0  0  0  0  0
    0.7274    0.3182   -0.9528 C   0  0  0  0  0  0  0  0  0  0  0  0
    0.2274    1.3672   -1.3388 O   0  0  0  0  0  0  0  0  0  0  0  0
    1.4301   -0.4636   -1.8477 N   0  0  0  0  0  0  0  0  0  0  0  0
    1.8595   -1.3056   -1.4582 H   0  0  0  0  0  0  0  0  0  0  0  0
    1.7544   -0.0558   -3.2077 C   0  0  0  0  0  0  0  0  0  0  0  0
    2.3437    0.8670   -3.2012 H   0  0  0  0  0  0  0  0  0  0  0  0
    2.3379   -0.8361   -3.7056 H   0  0  0  0  0  0  0  0  0  0  0  0
    0.8398    0.1132   -3.7855 H   0  0  0  0  0  0  0  0  0  0  0  0
  1  2  1  0  0  0  0
  2  3  1  0  0  0  0
  2  4  1  0  0  0  0
  2  5  1  0  0  0  0
  5  6  2  0  0  0  0
  5  7  1  0  0  0  0
  7  8  1  0  0  0  0
  7  9  1  0  0  0  0
  9 10  1  0  0  0  0
  9 11  1  0  0  0  0
  9 16  1  0  0  0  0
 11 12  1  0  0  0  0
 11 13  1  0  0  0  0
 11 14  1  0  0  0  0
 14 15  1  0  0  0  0
 16 17  2  0  0  0  0
 16 18  1  0  0  0  0
 18 19  1  0  0  0  0
 18 20  1  0  0  0  0
 20 21  1  0  0  0  0
 20 22  1  0  0  0  0
 20 23  1  0  0  0  0
M  END
$$$$

  -OEChem-01062216093D

 23 22  0     1  0  0  0  0  0999 V2000
   -2.8035   -3.6649    1.1181 H   0  0  0  0  0  0  0  0  0  0  0  0
   -2.7142   -2.6212    0.8031 C   0  0  0  0  0  0  0  0  0  0  0  0
   -3.2918   -1.9976    1.4898 H   0  0  0  0  0  0  0  0  0  0  0  0
   -3.1265   -2.5222   -0.2042 H   0  0  0  0  0  0  0  0  0  0  0  0
   -1.2586   -2.1929    0.8128 C   0  0  0  0  0  0  0  0  0  0  0  0
   -0.4042   -3.0229    1.0795 O   0  0  0  0  0  0  0  0  0  0  0  0
   -0.9497   -0.8908    0.4598 N   0  0  0  0  0  0  0  0  0  0  0  0
   -1.7522   -0.3296    0.1840 H   0  0  0  0  0  0  0  0  0  0  0  0
    0.3573   -0.1814    0.4381 C   0  0  1  0  0  0  0  0  0  0  0  0
    0.2184    0.7185    1.0451 H   0  0  0  0  0  0  0  0  0  0  0  0
    1.5703   -0.8932    1.0686 C   0  0  0  0  0  0  0  0  0  0  0  0
    2.4233   -0.2065    1.0790 H   0  0  0  0  0  0  0  0  0  0  0  0
    1.3464   -1.1554    2.1078 H   0  0  0  0  0  0  0  0  0  0  0  0
    1.9336   -2.0710    0.3436 O   0  0  0  0  0  0  0  0  0  0  0  0
    1.2277   -2.7422    0.5203 H   0  0  0  0  0  0  0  0  0  0  0  0
    0.6978    0.3161   -0.9782 C   0  0  0  0  0  0  0  0  0  0  0  0
    0.4141    1.4662   -1.2872 O   0  0  0  0  0  0  0  0  0  0  0  0
    1.1267   -0.5624   -1.9535 N   0  0  0  0  0  0  0  0  0  0  0  0
    1.4766   -1.4555   -1.6031 H   0  0  0  0  0  0  0  0  0  0  0  0
    1.4826   -0.1476   -3.3036 C   0  0  0  0  0  0  0  0  0  0  0  0
    2.3032    0.5769   -3.2784 H   0  0  0  0  0  0  0  0  0  0  0  0
    1.8011   -1.0135   -3.8917 H   0  0  0  0  0  0  0  0  0  0  0  0
    0.6228    0.3105   -3.8034 H   0  0  0  0  0  0  0  0  0  0  0  0
  1  2  1  0  0  0  0
  2  3  1  0  0  0  0
  2  4  1  0  0  0  0
  2  5  1  0  0  0  0
  5  6  2  0  0  0  0
  5  7  1  0  0  0  0
  7  8  1  0  0  0  0
  7  9  1  0  0  0  0
  9 10  1  0  0  0  0
  9 11  1  0  0  0  0
  9 16  1  0  0  0  0
 11 12  1  0  0  0  0
 11 13  1  0  0  0  0
 11 14  1  0  0  0  0
 14 15  1  0  0  0  0
 16 17  2  0  0  0  0
 16 18  1  0  0  0  0
 18 19  1  0  0  0  0
 18 20  1  0  0  0  0
 20 21  1  0  0  0  0
 20 22  1  0  0  0  0
 20 23  1  0  0  0  0
M  END
$$$$

  -OEChem-01062216093D

 23 22  0     1  0  0  0  0  0999 V2000
   -2.7999   -3.6711    1.1545 H   0  0  0  0  0  0  0  0  0  0  0  0
   -2.7192   -2.6286    0.8329 C   0  0  0  0  0  0  0  0  0  0  0  0
   -3.2877   -2.0039    1.5263 H   0  0  0  0  0  0  0  0  0  0  0  0
   -3.1488   -2.5358   -0.1676 H   0  0  0  0  0  0  0  0  0  0  0  0
   -1.2648   -2.1958    0.8147 C   0  0  0  0  0  0  0  0  0  0  0  0
   -0.4023   -3.0262    1.0511 O   0  0  0  0  0  0  0  0  0  0  0  0
   -0.9669   -0.8922    0.4569 N   0  0  0  0  0  0  0  0  0  0  0  0
   -1.7790   -0.3306    0.2127 H   0  0  0  0  0  0  0  0  0  0  0  0
    0.3355   -0.1721    0.4302 C   0  0  1  0  0  0  0  0  0  0  0  0
    0.1974    0.7234    1.0440 H   0  0  0  0  0  0  0  0  0  0  0  0
    1.5589   -0.8843    1.0346 C   0  0  0  0  0  0  0  0  0  0  0  0
    2.4085   -0.1933    1.0434 H   0  0  0  0  0  0  0  0  0  0  0  0
    1.3514   -1.1650    2.0722 H   0  0  0  0  0  0  0  0  0  0  0  0
    1.9138   -2.0461    0.2814 O   0  0  0  0  0  0  0  0  0  0  0  0
    1.2228   -2.7286    0.4690 H   0  0  0  0  0  0  0  0  0  0  0  0
    0.6773    0.3269   -0.9844 C   0  0  0  0  0  0  0  0  0  0  0  0
    0.6558    1.5284   -1.2177 O   0  0  0  0  0  0  0  0  0  0  0  0
    0.8133   -0.5692   -2.0272 N   0  0  0  0  0  0  0  0  0  0  0  0
    1.0143   -1.5263   -1.7394 H   0  0  0  0  0  0  0  0  0  0  0  0
    1.1753   -0.1598   -3.3777 C   0  0  0  0  0  0  0  0  0  0  0  0
    2.1509    0.3374   -3.3784 H   0  0  0  0  0  0  0  0  0  0  0  0
    1.2296   -1.0335   -4.0342 H   0  0  0  0  0  0  0  0  0  0  0  0
    0.4276    0.5294   -3.7839 H   0  0  0  0  0  0  0  0  0  0  0  0
  1  2  1  0  0  0  0
  2  3  1  0  0  0  0
  2  4  1  0  0  0  0
  2  5  1  0  0  0  0
  5  6  2  0  0  0  0
  5  7  1  0  0  0  0
  7  8  1  0  0  0  0
  7  9  1  0  0  0  0
  9 10  1  0  0  0  0
  9 11  1  0  0  0  0
  9 16  1  0  0  0  0
 11 12  1  0  0  0  0
 11 13  1  0  0  0  0
 11 14  1  0  0  0  0
 14 15  1  0  0  0  0
 16 17  2  0  0  0  0
 16 18  1  0  0  0  0
 18 19  1  0  0  0  0
 18 20  1  0  0  0  0
 20 21  1  0  0  0  0
 20 22  1  0  0  0  0
 20 23  1  0  0  0  0
M  END
$$$$

  -OEChem-01062216093D

 23 22  0     1  0  0  0  0  0999 V2000
   -2.7919   -3.6797    1.2024 H   0  0  0  0  0  0  0  0  0  0  0  0
   -2.7236   -2.6390    0.8724 C   0  0  0  0  0  0  0  0  0  0  0  0
   -3.2685   -2.0113    1.5818 H   0  0  0  0  0  0  0  0  0  0  0  0
   -3.1879   -2.5520   -0.1130 H   0  0  0  0  0  0  0  0  0  0  0  0
   -1.2711   -2.2053    0.8029 C   0  0  0  0  0  0  0  0  0  0  0  0
   -0.4004   -3.0384    0.9929 O   0  0  0  0  0  0  0  0  0  0  0  0
   -0.9849   -0.8987    0.4461 N   0  0  0  0  0  0  0  0  0  0  0  0
   -1.8063   -0.3332    0.2471 H   0  0  0  0  0  0  0  0  0  0  0  0
    0.3131   -0.1670    0.4219 C   0  0  1  0  0  0  0  0  0  0  0  0
    0.1689    0.7244    1.0403 H   0  0  0  0  0  0  0  0  0  0  0  0
    1.5447   -0.8732    1.0141 C   0  0  0  0  0  0  0  0  0  0  0  0
    2.3890   -0.1758    1.0265 H   0  0  0  0  0  0  0  0  0  0  0  0
    1.3440   -1.1671    2.0494 H   0  0  0  0  0  0  0  0  0  0  0  0
    1.9046   -2.0225    0.2463 O   0  0  0  0  0  0  0  0  0  0  0  0
    1.2166   -2.7110    0.4185 H   0  0  0  0  0  0  0  0  0  0  0  0
    0.6625    0.3401   -0.9878 C   0  0  0  0  0  0  0  0  0  0  0  0
    0.9244    1.5242   -1.1541 O   0  0  0  0  0  0  0  0  0  0  0  0
    0.5122   -0.4879   -2.0845 N   0  0  0  0  0  0  0  0  0  0  0  0
    0.4819   -1.4822   -1.8707 H   0  0  0  0  0  0  0  0  0  0  0  0
    0.8819   -0.0791   -3.4333 C   0  0  0  0  0  0  0  0  0  0  0  0
    1.9491    0.1616   -3.4819 H   0  0  0  0  0  0  0  0  0  0  0  0
    0.6749   -0.8864   -4.1421 H   0  0  0  0  0  0  0  0  0  0  0  0
    0.3075    0.8020   -3.7381 H   0  0  0  0  0  0  0  0  0  0  0  0
  1  2  1  0  0  0  0
  2  3  1  0  0  0  0
  2  4  1  0  0  0  0
  2  5  1  0  0  0  0
  5  6  2  0  0  0  0
  5  7  1  0  0  0  0
  7  8  1  0  0  0  0
  7  9  1  0  0  0  0
  9 10  1  0  0  0  0
  9 11  1  0  0  0  0
  9 16  1  0  0  0  0
 11 12  1  0  0  0  0
 11 13  1  0  0  0  0
 11 14  1  0  0  0  0
 14 15  1  0  0  0  0
 16 17  2  0  0  0  0
 16 18  1  0  0  0  0
 18 19  1  0  0  0  0
 18 20  1  0  0  0  0
 20 21  1  0  0  0  0
 20 22  1  0  0  0  0
 20 23  1  0  0  0  0
M  END
$$$$

  -OEChem-01062216093D

 23 22  0     1  0  0  0  0  0999 V2000
   -2.7822   -3.6886    1.2327 H   0  0  0  0  0  0  0  0  0  0  0  0
   -2.7223   -2.6470    0.9037 C   0  0  0  0  0  0  0  0  0  0  0  0
   -3.2459   -2.0213    1.6307 H   0  0  0  0  0  0  0  0  0  0  0  0
   -3.2148   -2.5563   -0.0675 H   0  0  0  0  0  0  0  0  0  0  0  0
   -1.2719   -2.2146    0.7937 C   0  0  0  0  0  0  0  0  0  0  0  0
   -0.3975   -3.0507    0.9456 O   0  0  0  0  0  0  0  0  0  0  0  0
   -0.9956   -0.9048    0.4407 N   0  0  0  0  0  0  0  0  0  0  0  0
   -1.8240   -0.3366    0.2829 H   0  0  0  0  0  0  0  0  0  0  0  0
    0.2981   -0.1625    0.4184 C   0  0  1  0  0  0  0  0  0  0  0  0
    0.1488    0.7250    1.0407 H   0  0  0  0  0  0  0  0  0  0  0  0
    1.5355   -0.8663    1.0026 C   0  0  0  0  0  0  0  0  0  0  0  0
    2.3760   -0.1643    1.0211 H   0  0  0  0  0  0  0  0  0  0  0  0
    1.3377   -1.1713    2.0355 H   0  0  0  0  0  0  0  0  0  0  0  0
    1.9003   -2.0067    0.2242 O   0  0  0  0  0  0  0  0  0  0  0  0
    1.2078   -2.6956    0.3732 H   0  0  0  0  0  0  0  0  0  0  0  0
    0.6530    0.3563   -0.9866 C   0  0  0  0  0  0  0  0  0  0  0  0
    1.1721    1.4578   -1.1099 O   0  0  0  0  0  0  0  0  0  0  0  0
    0.2351   -0.3302   -2.1122 N   0  0  0  0  0  0  0  0  0  0  0  0
   -0.0268   -1.2998   -1.9560 H   0  0  0  0  0  0  0  0  0  0  0  0
    0.5995    0.0811   -3.4621 C   0  0  0  0  0  0  0  0  0  0  0  0
    1.6877    0.0700   -3.5848 H   0  0  0  0  0  0  0  0  0  0  0  0
    0.1602   -0.6012   -4.1962 H   0  0  0  0  0  0  0  0  0  0  0  0
    0.2317    1.0918   -3.6688 H   0  0  0  0  0  0  0  0  0  0  0  0
  1  2  1  0  0  0  0
  2  3  1  0  0  0  0
  2  4  1  0  0  0  0
  2  5  1  0  0  0  0
  5  6  2  0  0  0  0
  5  7  1  0  0  0  0
  7  8  1  0  0  0  0
  7  9  1  0  0  0  0
  9 10  1  0  0  0  0
  9 11  1  0  0  0  0
  9 16  1  0  0  0  0
 11 12  1  0  0  0  0
 11 13  1  0  0  0  0
 11 14  1  0  0  0  0
 14 15  1  0  0  0  0
 16 17  2  0  0  0  0
 16 18  1  0  0  0  0
 18 19  1  0  0  0  0
 18 20  1  0  0  0  0
 20 21  1  0  0  0  0
 20 22  1  0  0  0  0
 20 23  1  0  0  0  0
M  END
$$$$

  -OEChem-01062216093D

 23 22  0     1  0  0  0  0  0999 V2000
   -2.7756   -3.6932    1.2395 H   0  0  0  0  0  0  0  0  0  0  0  0
   -2.7183   -2.6502    0.9140 C   0  0  0  0  0  0  0  0  0  0  0  0
   -3.2317   -2.0262    1.6498 H   0  0  0  0  0  0  0  0  0  0  0  0
   -3.2232   -2.5558   -0.0505 H   0  0  0  0  0  0  0  0  0  0  0  0
   -1.2685   -2.2199    0.7873 C   0  0  0  0  0  0  0  0  0  0  0  0
   -0.3953   -3.0594    0.9236 O   0  0  0  0  0  0  0  0  0  0  0  0
   -0.9951   -0.9082    0.4374 N   0  0  0  0  0  0  0  0  0  0  0  0
   -1.8260   -0.3356    0.3122 H   0  0  0  0  0  0  0  0  0  0  0  0
    0.2975   -0.1610    0.4177 C   0  0  1  0  0  0  0  0  0  0  0  0
    0.1465    0.7248    1.0420 H   0  0  0  0  0  0  0  0  0  0  0  0
    1.5337   -0.8681    1.0027 C   0  0  0  0  0  0  0  0  0  0  0  0
    2.3757   -0.1680    1.0291 H   0  0  0  0  0  0  0  0  0  0  0  0
    1.3317   -1.1778    2.0331 H   0  0  0  0  0  0  0  0  0  0  0  0
    1.9001   -2.0059    0.2214 O   0  0  0  0  0  0  0  0  0  0  0  0
    1.2009   -2.6913    0.3540 H   0  0  0  0  0  0  0  0  0  0  0  0
    0.6587    0.3657   -0.9847 C   0  0  0  0  0  0  0  0  0  0  0  0
    1.3807    1.3479   -1.0949 O   0  0  0  0  0  0  0  0  0  0  0  0
    0.0074   -0.1206   -2.1046 N   0  0  0  0  0  0  0  0  0  0  0  0
   -0.4487   -1.0203   -1.9858 H   0  0  0  0  0  0  0  0  0  0  0  0
    0.3368    0.3172   -3.4554 C   0  0  0  0  0  0  0  0  0  0  0  0
    1.3825    0.0890   -3.6873 H   0  0  0  0  0  0  0  0  0  0  0  0
   -0.3001   -0.1934   -4.1840 H   0  0  0  0  0  0  0  0  0  0  0  0
    0.1803    1.3961   -3.5589 H   0  0  0  0  0  0  0  0  0  0  0  0
  1  2  1  0  0  0  0
  2  3  1  0  0  0  0
  2  4  1  0  0  0  0
  2  5  1  0  0  0  0
  5  6  2  0  0  0  0
  5  7  1  0  0  0  0
  7  8  1  0  0  0  0
  7  9  1  0  0  0  0
  9 10  1  0  0  0  0
  9 11  1  0  0  0  0
  9 16  1  0  0  0  0
 11 12  1  0  0  0  0
 11 13  1  0  0  0  0
 11 14  1  0  0  0  0
 14 15  1  0  0  0  0
 16 17  2  0  0  0  0
 16 18  1  0  0  0  0
 18 19  1  0  0  0  0
 18 20  1  0  0  0  0
 20 21  1  0  0  0  0
 20 22  1  0  0  0  0
 20 23  1  0  0  0  0
M  END
$$$$

  -OEChem-01062216093D

 23 22  0     1  0  0  0  0  0999 V2000
   -2.7691   -3.6863    1.2639 H   0  0  0  0  0  0  0  0  0  0  0  0
   -2.7108   -2.6528    0.9098 C   0  0  0  0  0  0  0  0  0  0  0  0
   -3.2287   -2.0094    1.6253 H   0  0  0  0  0  0  0  0  0  0  0  0
   -3.2100   -2.5854   -0.0598 H   0  0  0  0  0  0  0  0  0  0  0  0
   -1.2605   -2.2258    0.7784 C   0  0  0  0  0  0  0  0  0  0  0  0
   -0.3905   -3.0682    0.9140 O   0  0  0  0  0  0  0  0  0  0  0  0
   -0.9869   -0.9129    0.4311 N   0  0  0  0  0  0  0  0  0  0  0  0
   -1.8184   -0.3354    0.3369 H   0  0  0  0  0  0  0  0  0  0  0  0
    0.3066   -0.1651    0.4126 C   0  0  1  0  0  0  0  0  0  0  0  0
    0.1527    0.7218    1.0339 H   0  0  0  0  0  0  0  0  0  0  0  0
    1.5383   -0.8731    1.0115 C   0  0  0  0  0  0  0  0  0  0  0  0
    2.3826   -0.1763    1.0428 H   0  0  0  0  0  0  0  0  0  0  0  0
    1.3259   -1.1754    2.0420 H   0  0  0  0  0  0  0  0  0  0  0  0
    1.9095   -2.0180    0.2429 O   0  0  0  0  0  0  0  0  0  0  0  0
    1.2024   -2.6975    0.3636 H   0  0  0  0  0  0  0  0  0  0  0  0
    0.6710    0.3668   -0.9896 C   0  0  0  0  0  0  0  0  0  0  0  0
    1.5607    1.1981   -1.1150 O   0  0  0  0  0  0  0  0  0  0  0  0
   -0.1672    0.1276   -2.0654 N   0  0  0  0  0  0  0  0  0  0  0  0
   -0.7952   -0.6632   -1.9626 H   0  0  0  0  0  0  0  0  0  0  0  0
    0.1191    0.6161   -3.4092 C   0  0  0  0  0  0  0  0  0  0  0  0
    1.0681    0.2069   -3.7718 H   0  0  0  0  0  0  0  0  0  0  0  0
   -0.6752    0.3145   -4.0987 H   0  0  0  0  0  0  0  0  0  0  0  0
    0.1821    1.7095   -3.4152 H   0  0  0  0  0  0  0  0  0  0  0  0
  1  2  1  0  0  0  0
  2  3  1  0  0  0  0
  2  4  1  0  0  0  0
  2  5  1  0  0  0  0
  5  6  2  0  0  0  0
  5  7  1  0  0  0  0
  7  8  1  0  0  0  0
  7  9  1  0  0  0  0
  9 10  1  0  0  0  0
  9 11  1  0  0  0  0
  9 16  1  0  0  0  0
 11 12  1  0  0  0  0
 11 13  1  0  0  0  0
 11 14  1  0  0  0  0
 14 15  1  0  0  0  0
 16 17  2  0  0  0  0
 16 18  1  0  0  0  0
 18 19  1  0  0  0  0
 18 20  1  0  0  0  0
 20 21  1  0  0  0  0
 20 22  1  0  0  0  0
 20 23  1  0  0  0  0
M  END
$$$$

  -OEChem-01062216093D

 23 22  0     1  0  0  0  0  0999 V2000
   -2.7652   -3.7022    1.2126 H   0  0  0  0  0  0  0  0  0  0  0  0
   -2.7048   -2.6497    0.9198 C   0  0  0  0  0  0  0  0  0  0  0  0
   -3.1838   -2.0447    1.6935 H   0  0  0  0  0  0  0  0  0  0  0  0
   -3.2413   -2.5170   -0.0228 H   0  0  0  0  0  0  0  0  0  0  0  0
   -1.2543   -2.2335    0.7568 C   0  0  0  0  0  0  0  0  0  0  0  0
   -0.3886   -3.0820    0.8794 O   0  0  0  0  0  0  0  0  0  0  0  0
   -0.9802   -0.9197    0.4118 N   0  0  0  0  0  0  0  0  0  0  0  0
   -1.8118   -0.3377    0.3595 H   0  0  0  0  0  0  0  0  0  0  0  0
    0.3138   -0.1711    0.3984 C   0  0  1  0  0  0  0  0  0  0  0  0
    0.1538    0.7189    1.0131 H   0  0  0  0  0  0  0  0  0  0  0  0
    1.5374   -0.8763    1.0220 C   0  0  0  0  0  0  0  0  0  0  0  0
    2.3832   -0.1818    1.0629 H   0  0  0  0  0  0  0  0  0  0  0  0
    1.3070   -1.1686    2.0514 H   0  0  0  0  0  0  0  0  0  0  0  0
    1.9196   -2.0315    0.2750 O   0  0  0  0  0  0  0  0  0  0  0  0
    1.2012   -2.7026    0.3762 H   0  0  0  0  0  0  0  0  0  0  0  0
    0.6825    0.3628   -1.0046 C   0  0  0  0  0  0  0  0  0  0  0  0
    1.7047    1.0154   -1.1709 O   0  0  0  0  0  0  0  0  0  0  0  0
   -0.2769    0.3993   -2.0034 N   0  0  0  0  0  0  0  0  0  0  0  0
   -1.0467   -0.2529   -1.8983 H   0  0  0  0  0  0  0  0  0  0  0  0
   -0.0104    0.9474   -3.3288 C   0  0  0  0  0  0  0  0  0  0  0  0
    0.8116    0.4063   -3.8094 H   0  0  0  0  0  0  0  0  0  0  0  0
   -0.8995    0.8602   -3.9604 H   0  0  0  0  0  0  0  0  0  0  0  0
    0.2588    2.0068   -3.2591 H   0  0  0  0  0  0  0  0  0  0  0  0
  1  2  1  0  0  0  0
  2  3  1  0  0  0  0
  2  4  1  0  0  0  0
  2  5  1  0  0  0  0
  5  6  2  0  0  0  0
  5  7  1  0  0  0  0
  7  8  1  0  0  0  0
  7  9  1  0  0  0  0
  9 10  1  0  0  0  0
  9 11  1  0  0  0  0
  9 16  1  0  0  0  0
 11 12  1  0  0  0  0
 11 13  1  0  0  0  0
 11 14  1  0  0  0  0
 14 15  1  0  0  0  0
 16 17  2  0  0  0  0
 16 18  1  0  0  0  0
 18 19  1  0  0  0  0
 18 20  1  0  0  0  0
 20 21  1  0  0  0  0
 20 22  1  0  0  0  0
 20 23  1  0  0  0  0
M  END
$$$$

  -OEChem-01062216093D

 23 22  0     1  0  0  0  0  0999 V2000
   -2.7608   -3.6959    1.2015 H   0  0  0  0  0  0  0  0  0  0  0  0
   -2.6972   -2.6466    0.8984 C   0  0  0  0  0  0  0  0  0  0  0  0
   -3.1798   -2.0329    1.6629 H   0  0  0  0  0  0  0  0  0  0  0  0
   -3.2277   -2.5235   -0.0489 H   0  0  0  0  0  0  0  0  0  0  0  0
   -1.2449   -2.2353    0.7397 C   0  0  0  0  0  0  0  0  0  0  0  0
   -0.3841   -3.0882    0.8643 O   0  0  0  0  0  0  0  0  0  0  0  0
   -0.9657   -0.9205    0.4015 N   0  0  0  0  0  0  0  0  0  0  0  0
   -1.7954   -0.3355    0.3726 H   0  0  0  0  0  0  0  0  0  0  0  0
    0.3317   -0.1778    0.3896 C   0  0  1  0  0  0  0  0  0  0  0  0
    0.1713    0.7145    1.0006 H   0  0  0  0  0  0  0  0  0  0  0  0
    1.5466   -0.8825    1.0348 C   0  0  0  0  0  0  0  0  0  0  0  0
    2.3948   -0.1911    1.0783 H   0  0  0  0  0  0  0  0  0  0  0  0
    1.3018   -1.1602    2.0649 H   0  0  0  0  0  0  0  0  0  0  0  0
    1.9356   -2.0511    0.3127 O   0  0  0  0  0  0  0  0  0  0  0  0
    1.2049   -2.7114    0.3960 H   0  0  0  0  0  0  0  0  0  0  0  0
    0.6930    0.3594   -1.0167 C   0  0  0  0  0  0  0  0  0  0  0  0
    1.8137    0.7814   -1.2693 O   0  0  0  0  0  0  0  0  0  0  0  0
   -0.3231    0.6921   -1.8985 N   0  0  0  0  0  0  0  0  0  0  0  0
   -1.2181    0.2441   -1.7395 H   0  0  0  0  0  0  0  0  0  0  0  0
   -0.0700    1.2854   -3.2074 C   0  0  0  0  0  0  0  0  0  0  0  0
    0.5651    0.6278   -3.8105 H   0  0  0  0  0  0  0  0  0  0  0  0
   -1.0125    1.4421   -3.7406 H   0  0  0  0  0  0  0  0  0  0  0  0
    0.4288    2.2544   -3.0996 H   0  0  0  0  0  0  0  0  0  0  0  0
  1  2  1  0  0  0  0
  2  3  1  0  0  0  0
  2  4  1  0  0  0  0
  2  5  1  0  0  0  0
  5  6  2  0  0  0  0
  5  7  1  0  0  0  0
  7  8  1  0  0  0  0
  7  9  1  0  0  0  0
  9 10  1  0  0  0  0
  9 11  1  0  0  0  0
  9 16  1  0  0  0  0
 11 12  1  0  0  0  0
 11 13  1  0  0  0  0
 11 14  1  0  0  0  0
 14 15  1  0  0  0  0
 16 17  2  0  0  0  0
 16 18  1  0  0  0  0
 18 19  1  0  0  0  0
 18 20  1  0  0  0  0
 20 21  1  0  0  0  0
 20 22  1  0  0  0  0
 20 23  1  0  0  0  0
M  END
$$$$

  -OEChem-01062216093D

 23 22  0     1  0  0  0  0  0999 V2000
   -2.7201   -3.6219    1.0271 H   0  0  0  0  0  0  0  0  0  0  0  0
   -2.5993   -2.6323    0.5771 C   0  0  0  0  0  0  0  0  0  0  0  0
   -3.4769   -2.0275    0.8175 H   0  0  0  0  0  0  0  0  0  0  0  0
   -2.5271   -2.7489   -0.5069 H   0  0  0  0  0  0  0  0  0  0  0  0
   -1.3443   -1.9665    1.1108 C   0  0  0  0  0  0  0  0  0  0  0  0
   -0.7647   -2.4863    2.0493 O   0  0  0  0  0  0  0  0  0  0  0  0
   -1.0192   -0.7008    0.6493 N   0  0  0  0  0  0  0  0  0  0  0  0
   -1.6856   -0.3935   -0.0501 H   0  0  0  0  0  0  0  0  0  0  0  0
    0.3515   -0.1413    0.4586 C   0  0  1  0  0  0  0  0  0  0  0  0
    0.4106    0.7746    1.0522 H   0  0  0  0  0  0  0  0  0  0  0  0
    1.5045   -1.0497    0.9449 C   0  0  0  0  0  0  0  0  0  0  0  0
    2.4523   -0.5077    0.8604 H   0  0  0  0  0  0  0  0  0  0  0  0
    1.3779   -1.2904    2.0042 H   0  0  0  0  0  0  0  0  0  0  0  0
    1.5863   -2.2504    0.1619 O   0  0  0  0  0  0  0  0  0  0  0  0
    2.2482   -2.8549    0.5376 H   0  0  0  0  0  0  0  0  0  0  0  0
    0.5953    0.2667   -1.0169 C   0  0  0  0  0  0  0  0  0  0  0  0
    1.6851    0.1859   -1.5700 O   0  0  0  0  0  0  0  0  0  0  0  0
   -0.4007    0.9720   -1.6771 N   0  0  0  0  0  0  0  0  0  0  0  0
   -1.1932    1.2772   -1.1228 H   0  0  0  0  0  0  0  0  0  0  0  0
   -0.2034    1.5790   -2.9897 C   0  0  0  0  0  0  0  0  0  0  0  0
    0.1003    0.8219   -3.7207 H   0  0  0  0  0  0  0  0  0  0  0  0
   -1.1335    2.0379   -3.3379 H   0  0  0  0  0  0  0  0  0  0  0  0
    0.5700    2.3529   -2.9430 H   0  0  0  0  0  0  0  0  0  0  0  0
  1  2  1  0  0  0  0
  2  3  1  0  0  0  0
  2  4  1  0  0  0  0
  2  5  1  0  0  0  0
  5  6  2  0  0  0  0
  5  7  1  0  0  0  0
  7  8  1  0  0  0  0
  7  9  1  0  0  0  0
  9 10  1  0  0  0  0
  9 11  1  0  0  0  0
  9 16  1  0  0  0  0
 11 12  1  0  0  0  0
 11 13  1  0  0  0  0
 11 14  1  0  0  0  0
 14 15  1  0  0  0  0
 16 17  2  0  0  0  0
 16 18  1  0  0  0  0
 18 19  1  0  0  0  0
 18 20  1  0  0  0  0
 20 21  1  0  0  0  0
 20 22  1  0  0  0  0
 20 23  1  0  0  0  0
M  END
$$$$

  -OEChem-01062216093D

 23 22  0     1  0  0  0  0  0999 V2000
   -2.7074   -3.6207    0.9945 H   0  0  0  0  0  0  0  0  0  0  0  0
   -2.5932   -2.6219    0.5633 C   0  0  0  0  0  0  0  0  0  0  0  0
   -3.4732   -2.0260    0.8165 H   0  0  0  0  0  0  0  0  0  0  0  0
   -2.5225   -2.7170   -0.5230 H   0  0  0  0  0  0  0  0  0  0  0  0
   -1.3409   -1.9594    1.1071 C   0  0  0  0  0  0  0  0  0  0  0  0
   -0.7663   -2.4814    2.0477 O   0  0  0  0  0  0  0  0  0  0  0  0
   -1.0142   -0.6908    0.6564 N   0  0  0  0  0  0  0  0  0  0  0  0
   -1.6840   -0.3705   -0.0352 H   0  0  0  0  0  0  0  0  0  0  0  0
    0.3573   -0.1434    0.4536 C   0  0  1  0  0  0  0  0  0  0  0  0
    0.4268    0.7705    1.0494 H   0  0  0  0  0  0  0  0  0  0  0  0
    1.5098   -1.0514    0.9434 C   0  0  0  0  0  0  0  0  0  0  0  0
    2.4567   -0.5107    0.8430 H   0  0  0  0  0  0  0  0  0  0  0  0
    1.3873   -1.2760    2.0069 H   0  0  0  0  0  0  0  0  0  0  0  0
    1.5929   -2.2654    0.1825 O   0  0  0  0  0  0  0  0  0  0  0  0
    2.2468   -2.8689    0.5726 H   0  0  0  0  0  0  0  0  0  0  0  0
    0.5706    0.2755   -1.0228 C   0  0  0  0  0  0  0  0  0  0  0  0
    1.5315   -0.0504   -1.7069 O   0  0  0  0  0  0  0  0  0  0  0  0
   -0.2747    1.2462   -1.5378 N   0  0  0  0  0  0  0  0  0  0  0  0
   -0.9445    1.6643   -0.8999 H   0  0  0  0  0  0  0  0  0  0  0  0
   -0.0752    1.8671   -2.8433 C   0  0  0  0  0  0  0  0  0  0  0  0
   -0.0617    1.1070   -3.6318 H   0  0  0  0  0  0  0  0  0  0  0  0
   -0.8869    2.5690   -3.0572 H   0  0  0  0  0  0  0  0  0  0  0  0
    0.8726    2.4151   -2.8668 H   0  0  0  0  0  0  0  0  0  0  0  0
  1  2  1  0  0  0  0
  2  3  1  0  0  0  0
  2  4  1  0  0  0  0
  2  5  1  0  0  0  0
  5  6  2  0  0  0  0
  5  7  1  0  0  0  0
  7  8  1  0  0  0  0
  7  9  1  0  0  0  0
  9 10  1  0  0  0  0
  9 11  1  0  0  0  0
  9 16  1  0  0  0  0
 11 12  1  0  0  0  0
 11 13  1  0  0  0  0
 11 14  1  0  0  0  0
 14 15  1  0  0  0  0
 16 17  2  0  0  0  0
 16 18  1  0  0  0  0
 18 19  1  0  0  0  0
 18 20  1  0  0  0  0
 20 21  1  0  0  0  0
 20 22  1  0  0  0  0
 20 23  1  0  0  0  0
M  END
$$$$

  -OEChem-01062216093D

 23 22  0     1  0  0  0  0  0999 V2000
   -2.6949   -3.6253    0.9409 H   0  0  0  0  0  0  0  0  0  0  0  0
   -2.5847   -2.6159    0.5344 C   0  0  0  0  0  0  0  0  0  0  0  0
   -3.4650   -2.0284    0.8054 H   0  0  0  0  0  0  0  0  0  0  0  0
   -2.5179   -2.6841   -0.5543 H   0  0  0  0  0  0  0  0  0  0  0  0
   -1.3320   -1.9638    1.0893 C   0  0  0  0  0  0  0  0  0  0  0  0
   -0.7517   -2.5050    2.0161 O   0  0  0  0  0  0  0  0  0  0  0  0
   -1.0099   -0.6834    0.6708 N   0  0  0  0  0  0  0  0  0  0  0  0
   -1.6816   -0.3445   -0.0109 H   0  0  0  0  0  0  0  0  0  0  0  0
    0.3614   -0.1425    0.4680 C   0  0  1  0  0  0  0  0  0  0  0  0
    0.4317    0.7580    1.0834 H   0  0  0  0  0  0  0  0  0  0  0  0
    1.5232   -1.0441    0.9493 C   0  0  0  0  0  0  0  0  0  0  0  0
    2.4637   -0.4932    0.8457 H   0  0  0  0  0  0  0  0  0  0  0  0
    1.4033   -1.2686    2.0133 H   0  0  0  0  0  0  0  0  0  0  0  0
    1.6269   -2.2614    0.1990 O   0  0  0  0  0  0  0  0  0  0  0  0
    2.2320   -2.8837    0.6352 H   0  0  0  0  0  0  0  0  0  0  0  0
    0.5598    0.3159   -0.9983 C   0  0  0  0  0  0  0  0  0  0  0  0
    1.2307   -0.2708   -1.8349 O   0  0  0  0  0  0  0  0  0  0  0  0
   -0.0432    1.5024   -1.3842 N   0  0  0  0  0  0  0  0  0  0  0  0
   -0.5288    2.0364   -0.6699 H   0  0  0  0  0  0  0  0  0  0  0  0
    0.1217    2.0913   -2.7093 C   0  0  0  0  0  0  0  0  0  0  0  0
   -0.2291    1.4003   -3.4832 H   0  0  0  0  0  0  0  0  0  0  0  0
   -0.4565    3.0170   -2.7871 H   0  0  0  0  0  0  0  0  0  0  0  0
    1.1752    2.3242   -2.8971 H   0  0  0  0  0  0  0  0  0  0  0  0
  1  2  1  0  0  0  0
  2  3  1  0  0  0  0
  2  4  1  0  0  0  0
  2  5  1  0  0  0  0
  5  6  2  0  0  0  0
  5  7  1  0  0  0  0
  7  8  1  0  0  0  0
  7  9  1  0  0  0  0
  9 10  1  0  0  0  0
  9 11  1  0  0  0  0
  9 16  1  0  0  0  0
 11 12  1  0  0  0  0
 11 13  1  0  0  0  0
 11 14  1  0  0  0  0
 14 15  1  0  0  0  0
 16 17  2  0  0  0  0
 16 18  1  0  0  0  0
 18 19  1  0  0  0  0
 18 20  1  0  0  0  0
 20 21  1  0  0  0  0
 20 22  1  0  0  0  0
 20 23  1  0  0  0  0
M  END
$$$$

  -OEChem-01062216093D

 23 22  0     1  0  0  0  0  0999 V2000
   -2.7522   -3.6710    0.9761 H   0  0  0  0  0  0  0  0  0  0  0  0
   -2.6530   -2.6338    0.6430 C   0  0  0  0  0  0  0  0  0  0  0  0
   -3.3366   -2.0120    1.2259 H   0  0  0  0  0  0  0  0  0  0  0  0
   -2.9280   -2.5776   -0.4133 H   0  0  0  0  0  0  0  0  0  0  0  0
   -1.2248   -2.1570    0.8326 C   0  0  0  0  0  0  0  0  0  0  0  0
   -0.3948   -2.9494    1.2451 O   0  0  0  0  0  0  0  0  0  0  0  0
   -0.9198   -0.8455    0.5105 N   0  0  0  0  0  0  0  0  0  0  0  0
   -1.6867   -0.3457    0.0702 H   0  0  0  0  0  0  0  0  0  0  0  0
    0.4073   -0.1756    0.4563 C   0  0  1  0  0  0  0  0  0  0  0  0
    0.2941    0.7116    1.0842 H   0  0  0  0  0  0  0  0  0  0  0  0
    1.6289   -0.8844    1.0803 C   0  0  0  0  0  0  0  0  0  0  0  0
    2.4851   -0.2025    1.0582 H   0  0  0  0  0  0  0  0  0  0  0  0
    1.4186   -1.1126    2.1302 H   0  0  0  0  0  0  0  0  0  0  0  0
    1.9904   -2.0858    0.4053 O   0  0  0  0  0  0  0  0  0  0  0  0
    1.2506   -2.7259    0.5208 H   0  0  0  0  0  0  0  0  0  0  0  0
    0.6944    0.3657   -0.9613 C   0  0  0  0  0  0  0  0  0  0  0  0
    1.0262   -0.3632   -1.8845 O   0  0  0  0  0  0  0  0  0  0  0  0
    0.3003    1.6568   -1.2754 N   0  0  0  0  0  0  0  0  0  0  0  0
    0.0193    2.2644   -0.5123 H   0  0  0  0  0  0  0  0  0  0  0  0
    0.4244    2.2257   -2.6134 C   0  0  0  0  0  0  0  0  0  0  0  0
   -0.1752    1.6548   -3.3303 H   0  0  0  0  0  0  0  0  0  0  0  0
    0.0730    3.2619   -2.6186 H   0  0  0  0  0  0  0  0  0  0  0  0
    1.4695    2.2133   -2.9405 H   0  0  0  0  0  0  0  0  0  0  0  0
  1  2  1  0  0  0  0
  2  3  1  0  0  0  0
  2  4  1  0  0  0  0
  2  5  1  0  0  0  0
  5  6  2  0  0  0  0
  5  7  1  0  0  0  0
  7  8  1  0  0  0  0
  7  9  1  0  0  0  0
  9 10  1  0  0  0  0
  9 11  1  0  0  0  0
  9 16  1  0  0  0  0
 11 12  1  0  0  0  0
 11 13  1  0  0  0  0
 11 14  1  0  0  0  0
 14 15  1  0  0  0  0
 16 17  2  0  0  0  0
 16 18  1  0  0  0  0
 18 19  1  0  0  0  0
 18 20  1  0  0  0  0
 20 21  1  0  0  0  0
 20 22  1  0  0  0  0
 20 23  1  0  0  0  0
M  END
$$$$

  -OEChem-01062216093D

 23 22  0     1  0  0  0  0  0999 V2000
   -2.7404   -3.6820    0.9491 H   0  0  0  0  0  0  0  0  0  0  0  0
   -2.6497   -2.6375    0.6369 C   0  0  0  0  0  0  0  0  0  0  0  0
   -3.3494   -2.0348    1.2208 H   0  0  0  0  0  0  0  0  0  0  0  0
   -2.9098   -2.5648   -0.4221 H   0  0  0  0  0  0  0  0  0  0  0  0
   -1.2309   -2.1463    0.8565 C   0  0  0  0  0  0  0  0  0  0  0  0
   -0.4034   -2.9271    1.2963 O   0  0  0  0  0  0  0  0  0  0  0  0
   -0.9286   -0.8356    0.5308 N   0  0  0  0  0  0  0  0  0  0  0  0
   -1.6790   -0.3563    0.0412 H   0  0  0  0  0  0  0  0  0  0  0  0
    0.3999   -0.1698    0.4794 C   0  0  1  0  0  0  0  0  0  0  0  0
    0.2886    0.7130    1.1139 H   0  0  0  0  0  0  0  0  0  0  0  0
    1.6270   -0.8876    1.0757 C   0  0  0  0  0  0  0  0  0  0  0  0
    2.4842   -0.2069    1.0556 H   0  0  0  0  0  0  0  0  0  0  0  0
    1.4318   -1.1379    2.1235 H   0  0  0  0  0  0  0  0  0  0  0  0
    1.9704   -2.0723    0.3634 O   0  0  0  0  0  0  0  0  0  0  0  0
    1.2369   -2.7171    0.4903 H   0  0  0  0  0  0  0  0  0  0  0  0
    0.6961    0.3675   -0.9366 C   0  0  0  0  0  0  0  0  0  0  0  0
    0.6894   -0.3758   -1.9084 O   0  0  0  0  0  0  0  0  0  0  0  0
    0.6078    1.7296   -1.1751 N   0  0  0  0  0  0  0  0  0  0  0  0
    0.5992    2.3487   -0.3705 H   0  0  0  0  0  0  0  0  0  0  0  0
    0.7455    2.3158   -2.5043 C   0  0  0  0  0  0  0  0  0  0  0  0
   -0.0357    1.9400   -3.1735 H   0  0  0  0  0  0  0  0  0  0  0  0
    0.6561    3.4050   -2.4494 H   0  0  0  0  0  0  0  0  0  0  0  0
    1.7236    2.0697   -2.9313 H   0  0  0  0  0  0  0  0  0  0  0  0
  1  2  1  0  0  0  0
  2  3  1  0  0  0  0
  2  4  1  0  0  0  0
  2  5  1  0  0  0  0
  5  6  2  0  0  0  0
  5  7  1  0  0  0  0
  7  8  1  0  0  0  0
  7  9  1  0  0  0  0
  9 10  1  0  0  0  0
  9 11  1  0  0  0  0
  9 16  1  0  0  0  0
 11 12  1  0  0  0  0
 11 13  1  0  0  0  0
 11 14  1  0  0  0  0
 14 15  1  0  0  0  0
 16 17  2  0  0  0  0
 16 18  1  0  0  0  0
 18 19  1  0  0  0  0
 18 20  1  0  0  0  0
 20 21  1  0  0  0  0
 20 22  1  0  0  0  0
 20 23  1  0  0  0  0
M  END
$$$$

  -OEChem-01062216093D

 23 22  0     1  0  0  0  0  0999 V2000
   -2.7365   -3.6864    0.9418 H   0  0  0  0  0  0  0  0  0  0  0  0
   -2.6461   -2.6423    0.6286 C   0  0  0  0  0  0  0  0  0  0  0  0
   -3.3640   -2.0429    1.1935 H   0  0  0  0  0  0  0  0  0  0  0  0
   -2.8812   -2.5745   -0.4365 H   0  0  0  0  0  0  0  0  0  0  0  0
   -1.2368   -2.1391    0.8795 C   0  0  0  0  0  0  0  0  0  0  0  0
   -0.4130   -2.9110    1.3425 O   0  0  0  0  0  0  0  0  0  0  0  0
   -0.9355   -0.8300    0.5478 N   0  0  0  0  0  0  0  0  0  0  0  0
   -1.6684   -0.3725    0.0120 H   0  0  0  0  0  0  0  0  0  0  0  0
    0.3936   -0.1652    0.4977 C   0  0  1  0  0  0  0  0  0  0  0  0
    0.2826    0.7174    1.1326 H   0  0  0  0  0  0  0  0  0  0  0  0
    1.6220   -0.8913    1.0770 C   0  0  0  0  0  0  0  0  0  0  0  0
    2.4816   -0.2137    1.0591 H   0  0  0  0  0  0  0  0  0  0  0  0
    1.4358   -1.1564    2.1228 H   0  0  0  0  0  0  0  0  0  0  0  0
    1.9492   -2.0645    0.3386 O   0  0  0  0  0  0  0  0  0  0  0  0
    1.2237   -2.7147    0.4819 H   0  0  0  0  0  0  0  0  0  0  0  0
    0.6988    0.3664   -0.9184 C   0  0  0  0  0  0  0  0  0  0  0  0
    0.4204   -0.3023   -1.9061 O   0  0  0  0  0  0  0  0  0  0  0  0
    0.9238    1.7207   -1.1039 N   0  0  0  0  0  0  0  0  0  0  0  0
    1.1411    2.2774   -0.2831 H   0  0  0  0  0  0  0  0  0  0  0  0
    1.0865    2.3281   -2.4204 C   0  0  0  0  0  0  0  0  0  0  0  0
    0.1796    2.1956   -3.0199 H   0  0  0  0  0  0  0  0  0  0  0  0
    1.2795    3.4007   -2.3212 H   0  0  0  0  0  0  0  0  0  0  0  0
    1.9294    1.8724   -2.9509 H   0  0  0  0  0  0  0  0  0  0  0  0
  1  2  1  0  0  0  0
  2  3  1  0  0  0  0
  2  4  1  0  0  0  0
  2  5  1  0  0  0  0
  5  6  2  0  0  0  0
  5  7  1  0  0  0  0
  7  8  1  0  0  0  0
  7  9  1  0  0  0  0
  9 10  1  0  0  0  0
  9 11  1  0  0  0  0
  9 16  1  0  0  0  0
 11 12  1  0  0  0  0
 11 13  1  0  0  0  0
 11 14  1  0  0  0  0
 14 15  1  0  0  0  0
 16 17  2  0  0  0  0
 16 18  1  0  0  0  0
 18 19  1  0  0  0  0
 18 20  1  0  0  0  0
 20 21  1  0  0  0  0
 20 22  1  0  0  0  0
 20 23  1  0  0  0  0
M  END
$$$$

  -OEChem-01062216093D

 23 22  0     1  0  0  0  0  0999 V2000
   -2.7352   -3.6920    0.9405 H   0  0  0  0  0  0  0  0  0  0  0  0
   -2.6478   -2.6461    0.6323 C   0  0  0  0  0  0  0  0  0  0  0  0
   -3.3705   -2.0523    1.1969 H   0  0  0  0  0  0  0  0  0  0  0  0
   -2.8788   -2.5742   -0.4335 H   0  0  0  0  0  0  0  0  0  0  0  0
   -1.2420   -2.1379    0.8925 C   0  0  0  0  0  0  0  0  0  0  0  0
   -0.4180   -2.9073    1.3600 O   0  0  0  0  0  0  0  0  0  0  0  0
   -0.9417   -0.8294    0.5586 N   0  0  0  0  0  0  0  0  0  0  0  0
   -1.6618   -0.3863   -0.0068 H   0  0  0  0  0  0  0  0  0  0  0  0
    0.3858   -0.1612    0.5091 C   0  0  1  0  0  0  0  0  0  0  0  0
    0.2753    0.7225    1.1430 H   0  0  0  0  0  0  0  0  0  0  0  0
    1.6145   -0.8932    1.0771 C   0  0  0  0  0  0  0  0  0  0  0  0
    2.4764   -0.2183    1.0628 H   0  0  0  0  0  0  0  0  0  0  0  0
    1.4329   -1.1701    2.1207 H   0  0  0  0  0  0  0  0  0  0  0  0
    1.9307   -2.0572    0.3193 O   0  0  0  0  0  0  0  0  0  0  0  0
    1.2139   -2.7138    0.4778 H   0  0  0  0  0  0  0  0  0  0  0  0
    0.6945    0.3688   -0.9067 C   0  0  0  0  0  0  0  0  0  0  0  0
    0.1919   -0.1667   -1.8884 O   0  0  0  0  0  0  0  0  0  0  0  0
    1.2190    1.6409   -1.0628 N   0  0  0  0  0  0  0  0  0  0  0  0
    1.6404    2.0755   -0.2475 H   0  0  0  0  0  0  0  0  0  0  0  0
    1.4347    2.2553   -2.3681 C   0  0  0  0  0  0  0  0  0  0  0  0
    0.4870    2.3537   -2.9080 H   0  0  0  0  0  0  0  0  0  0  0  0
    1.8675    3.2533   -2.2496 H   0  0  0  0  0  0  0  0  0  0  0  0
    2.1210    1.6483   -2.9682 H   0  0  0  0  0  0  0  0  0  0  0  0
  1  2  1  0  0  0  0
  2  3  1  0  0  0  0
  2  4  1  0  0  0  0
  2  5  1  0  0  0  0
  5  6  2  0  0  0  0
  5  7  1  0  0  0  0
  7  8  1  0  0  0  0
  7  9  1  0  0  0  0
  9 10  1  0  0  0  0
  9 11  1  0  0  0  0
  9 16  1  0  0  0  0
 11 12  1  0  0  0  0
 11 13  1  0  0  0  0
 11 14  1  0  0  0  0
 14 15  1  0  0  0  0
 16 17  2  0  0  0  0
 16 18  1  0  0  0  0
 18 19  1  0  0  0  0
 18 20  1  0  0  0  0
 20 21  1  0  0  0  0
 20 22  1  0  0  0  0
 20 23  1  0  0  0  0
M  END
$$$$

  -OEChem-01062216093D

 23 22  0     1  0  0  0  0  0999 V2000
   -2.7370   -3.6942    0.9349 H   0  0  0  0  0  0  0  0  0  0  0  0
   -2.6490   -2.6471    0.6310 C   0  0  0  0  0  0  0  0  0  0  0  0
   -3.3760   -2.0558    1.1929 H   0  0  0  0  0  0  0  0  0  0  0  0
   -2.8733   -2.5716   -0.4360 H   0  0  0  0  0  0  0  0  0  0  0  0
   -1.2456   -2.1379    0.9020 C   0  0  0  0  0  0  0  0  0  0  0  0
   -0.4234   -2.9076    1.3728 O   0  0  0  0  0  0  0  0  0  0  0  0
   -0.9432   -0.8302    0.5670 N   0  0  0  0  0  0  0  0  0  0  0  0
   -1.6554   -0.3930   -0.0142 H   0  0  0  0  0  0  0  0  0  0  0  0
    0.3825   -0.1577    0.5192 C   0  0  1  0  0  0  0  0  0  0  0  0
    0.2738    0.7277    1.1510 H   0  0  0  0  0  0  0  0  0  0  0  0
    1.6082   -0.8969    1.0838 C   0  0  0  0  0  0  0  0  0  0  0  0
    2.4735   -0.2265    1.0762 H   0  0  0  0  0  0  0  0  0  0  0  0
    1.4247   -1.1812    2.1250 H   0  0  0  0  0  0  0  0  0  0  0  0
    1.9169   -2.0556    0.3147 O   0  0  0  0  0  0  0  0  0  0  0  0
    1.2064   -2.7165    0.4852 H   0  0  0  0  0  0  0  0  0  0  0  0
    0.6937    0.3710   -0.8972 C   0  0  0  0  0  0  0  0  0  0  0  0
    0.0152    0.0062   -1.8522 O   0  0  0  0  0  0  0  0  0  0  0  0
    1.4890    1.4935   -1.0544 N   0  0  0  0  0  0  0  0  0  0  0  0
    2.0729    1.7614   -0.2680 H   0  0  0  0  0  0  0  0  0  0  0  0
    1.7510    2.1041   -2.3528 C   0  0  0  0  0  0  0  0  0  0  0  0
    0.8166    2.4360   -2.8177 H   0  0  0  0  0  0  0  0  0  0  0  0
    2.4042    2.9743   -2.2365 H   0  0  0  0  0  0  0  0  0  0  0  0
    2.2425    1.3884   -3.0204 H   0  0  0  0  0  0  0  0  0  0  0  0
  1  2  1  0  0  0  0
  2  3  1  0  0  0  0
  2  4  1  0  0  0  0
  2  5  1  0  0  0  0
  5  6  2  0  0  0  0
  5  7  1  0  0  0  0
  7  8  1  0  0  0  0
  7  9  1  0  0  0  0
  9 10  1  0  0  0  0
  9 11  1  0  0  0  0
  9 16  1  0  0  0  0
 11 12  1  0  0  0  0
 11 13  1  0  0  0  0
 11 14  1  0  0  0  0
 14 15  1  0  0  0  0
 16 17  2  0  0  0  0
 16 18  1  0  0  0  0
 18 19  1  0  0  0  0
 18 20  1  0  0  0  0
 20 21  1  0  0  0  0
 20 22  1  0  0  0  0
 20 23  1  0  0  0  0
M  END
$$$$

  -OEChem-01062216093D

 23 22  0     1  0  0  0  0  0999 V2000
   -2.7440   -3.6918    0.9216 H   0  0  0  0  0  0  0  0  0  0  0  0
   -2.6518   -2.6431    0.6254 C   0  0  0  0  0  0  0  0  0  0  0  0
   -3.3748   -2.0532    1.1938 H   0  0  0  0  0  0  0  0  0  0  0  0
   -2.8789   -2.5582   -0.4403 H   0  0  0  0  0  0  0  0  0  0  0  0
   -1.2453   -2.1421    0.8963 C   0  0  0  0  0  0  0  0  0  0  0  0
   -0.4234   -2.9200    1.3543 O   0  0  0  0  0  0  0  0  0  0  0  0
   -0.9381   -0.8334    0.5703 N   0  0  0  0  0  0  0  0  0  0  0  0
   -1.6479   -0.3876   -0.0085 H   0  0  0  0  0  0  0  0  0  0  0  0
    0.3849   -0.1546    0.5350 C   0  0  1  0  0  0  0  0  0  0  0  0
    0.2741    0.7306    1.1670 H   0  0  0  0  0  0  0  0  0  0  0  0
    1.6057   -0.9006    1.1033 C   0  0  0  0  0  0  0  0  0  0  0  0
    2.4728   -0.2333    1.1130 H   0  0  0  0  0  0  0  0  0  0  0  0
    1.4126   -1.1954    2.1400 H   0  0  0  0  0  0  0  0  0  0  0  0
    1.9169   -2.0523    0.3245 O   0  0  0  0  0  0  0  0  0  0  0  0
    1.2080   -2.7165    0.4911 H   0  0  0  0  0  0  0  0  0  0  0  0
    0.6960    0.3784   -0.8812 C   0  0  0  0  0  0  0  0  0  0  0  0
   -0.1126    0.2043   -1.7884 O   0  0  0  0  0  0  0  0  0  0  0  0
    1.7129    1.2974   -1.0772 N   0  0  0  0  0  0  0  0  0  0  0  0
    2.4140    1.3680   -0.3458 H   0  0  0  0  0  0  0  0  0  0  0  0
    2.0142    1.8778   -2.3808 C   0  0  0  0  0  0  0  0  0  0  0  0
    1.1491    2.4273   -2.7668 H   0  0  0  0  0  0  0  0  0  0  0  0
    2.8544    2.5742   -2.2992 H   0  0  0  0  0  0  0  0  0  0  0  0
    2.2816    1.0935   -3.0970 H   0  0  0  0  0  0  0  0  0  0  0  0
  1  2  1  0  0  0  0
  2  3  1  0  0  0  0
  2  4  1  0  0  0  0
  2  5  1  0  0  0  0
  5  6  2  0  0  0  0
  5  7  1  0  0  0  0
  7  8  1  0  0  0  0
  7  9  1  0  0  0  0
  9 10  1  0  0  0  0
  9 11  1  0  0  0  0
  9 16  1  0  0  0  0
 11 12  1  0  0  0  0
 11 13  1  0  0  0  0
 11 14  1  0  0  0  0
 14 15  1  0  0  0  0
 16 17  2  0  0  0  0
 16 18  1  0  0  0  0
 18 19  1  0  0  0  0
 18 20  1  0  0  0  0
 20 21  1  0  0  0  0
 20 22  1  0  0  0  0
 20 23  1  0  0  0  0
M  END
$$$$

  -OEChem-01062216093D

 23 22  0     1  0  0  0  0  0999 V2000
   -2.7749   -3.6710    0.9346 H   0  0  0  0  0  0  0  0  0  0  0  0
   -2.6757   -2.6221    0.6413 C   0  0  0  0  0  0  0  0  0  0  0  0
   -3.3375   -2.0190    1.2676 H   0  0  0  0  0  0  0  0  0  0  0  0
   -2.9790   -2.5182   -0.4036 H   0  0  0  0  0  0  0  0  0  0  0  0
   -1.2398   -2.1630    0.8124 C   0  0  0  0  0  0  0  0  0  0  0  0
   -0.3969   -2.9779    1.1499 O   0  0  0  0  0  0  0  0  0  0  0  0
   -0.9231   -0.8533    0.5046 N   0  0  0  0  0  0  0  0  0  0  0  0
   -1.6631   -0.3431    0.0228 H   0  0  0  0  0  0  0  0  0  0  0  0
    0.3919   -0.1621    0.5048 C   0  0  1  0  0  0  0  0  0  0  0  0
    0.3530    0.5523    1.3314 H   0  0  0  0  0  0  0  0  0  0  0  0
    1.6470   -1.0135    0.7689 C   0  0  0  0  0  0  0  0  0  0  0  0
    2.5221   -0.3610    0.8439 H   0  0  0  0  0  0  0  0  0  0  0  0
    1.5622   -1.5347    1.7276 H   0  0  0  0  0  0  0  0  0  0  0  0
    1.8570   -1.9466   -0.2876 O   0  0  0  0  0  0  0  0  0  0  0  0
    1.1967   -2.6651   -0.1837 H   0  0  0  0  0  0  0  0  0  0  0  0
    0.5544    0.6901   -0.7740 C   0  0  0  0  0  0  0  0  0  0  0  0
   -0.4205    0.8812   -1.4962 O   0  0  0  0  0  0  0  0  0  0  0  0
    1.7023    1.4287   -1.0035 N   0  0  0  0  0  0  0  0  0  0  0  0
    2.5272    1.1581   -0.4755 H   0  0  0  0  0  0  0  0  0  0  0  0
    1.8856    2.2532   -2.1921 C   0  0  0  0  0  0  0  0  0  0  0  0
    1.0969    3.0099   -2.2619 H   0  0  0  0  0  0  0  0  0  0  0  0
    2.8504    2.7674   -2.1493 H   0  0  0  0  0  0  0  0  0  0  0  0
    1.8614    1.6338   -3.0949 H   0  0  0  0  0  0  0  0  0  0  0  0
  1  2  1  0  0  0  0
  2  3  1  0  0  0  0
  2  4  1  0  0  0  0
  2  5  1  0  0  0  0
  5  6  2  0  0  0  0
  5  7  1  0  0  0  0
  7  8  1  0  0  0  0
  7  9  1  0  0  0  0
  9 10  1  0  0  0  0
  9 11  1  0  0  0  0
  9 16  1  0  0  0  0
 11 12  1  0  0  0  0
 11 13  1  0  0  0  0
 11 14  1  0  0  0  0
 14 15  1  0  0  0  0
 16 17  2  0  0  0  0
 16 18  1  0  0  0  0
 18 19  1  0  0  0  0
 18 20  1  0  0  0  0
 20 21  1  0  0  0  0
 20 22  1  0  0  0  0
 20 23  1  0  0  0  0
M  END
$$$$

  -OEChem-01062216093D

 23 22  0     1  0  0  0  0  0999 V2000
   -2.7871   -3.6593    0.9269 H   0  0  0  0  0  0  0  0  0  0  0  0
   -2.6824   -2.6078    0.6447 C   0  0  0  0  0  0  0  0  0  0  0  0
   -3.3194   -2.0040    1.2957 H   0  0  0  0  0  0  0  0  0  0  0  0
   -3.0120   -2.4865   -0.3901 H   0  0  0  0  0  0  0  0  0  0  0  0
   -1.2367   -2.1690    0.7828 C   0  0  0  0  0  0  0  0  0  0  0  0
   -0.3925   -3.0002    1.0754 O   0  0  0  0  0  0  0  0  0  0  0  0
   -0.9122   -0.8586    0.4871 N   0  0  0  0  0  0  0  0  0  0  0  0
   -1.6646   -0.3183    0.0606 H   0  0  0  0  0  0  0  0  0  0  0  0
    0.4027   -0.1687    0.5072 C   0  0  1  0  0  0  0  0  0  0  0  0
    0.3535    0.5468    1.3324 H   0  0  0  0  0  0  0  0  0  0  0  0
    1.6536   -1.0189    0.7958 C   0  0  0  0  0  0  0  0  0  0  0  0
    2.5275   -0.3671    0.8905 H   0  0  0  0  0  0  0  0  0  0  0  0
    1.5467   -1.5399    1.7524 H   0  0  0  0  0  0  0  0  0  0  0  0
    1.8820   -1.9556   -0.2538 O   0  0  0  0  0  0  0  0  0  0  0  0
    1.2161   -2.6715   -0.1581 H   0  0  0  0  0  0  0  0  0  0  0  0
    0.5700    0.6866   -0.7689 C   0  0  0  0  0  0  0  0  0  0  0  0
   -0.4349    1.0612   -1.3672 O   0  0  0  0  0  0  0  0  0  0  0  0
    1.8012    1.1845   -1.1575 N   0  0  0  0  0  0  0  0  0  0  0  0
    2.6121    0.7092   -0.7688 H   0  0  0  0  0  0  0  0  0  0  0  0
    1.9849    1.9695   -2.3722 C   0  0  0  0  0  0  0  0  0  0  0  0
    1.3508    2.8622   -2.3538 H   0  0  0  0  0  0  0  0  0  0  0  0
    3.0271    2.2917   -2.4590 H   0  0  0  0  0  0  0  0  0  0  0  0
    1.7299    1.3740   -3.2552 H   0  0  0  0  0  0  0  0  0  0  0  0
  1  2  1  0  0  0  0
  2  3  1  0  0  0  0
  2  4  1  0  0  0  0
  2  5  1  0  0  0  0
  5  6  2  0  0  0  0
  5  7  1  0  0  0  0
  7  8  1  0  0  0  0
  7  9  1  0  0  0  0
  9 10  1  0  0  0  0
  9 11  1  0  0  0  0
  9 16  1  0  0  0  0
 11 12  1  0  0  0  0
 11 13  1  0  0  0  0
 11 14  1  0  0  0  0
 14 15  1  0  0  0  0
 16 17  2  0  0  0  0
 16 18  1  0  0  0  0
 18 19  1  0  0  0  0
 18 20  1  0  0  0  0
 20 21  1  0  0  0  0
 20 22  1  0  0  0  0
 20 23  1  0  0  0  0
M  END
$$$$

  -OEChem-01062216093D

 23 22  0     1  0  0  0  0  0999 V2000
   -2.7908   -3.6517    0.9282 H   0  0  0  0  0  0  0  0  0  0  0  0
   -2.6856   -2.5984    0.6532 C   0  0  0  0  0  0  0  0  0  0  0  0
   -3.3048   -1.9975    1.3236 H   0  0  0  0  0  0  0  0  0  0  0  0
   -3.0366   -2.4658   -0.3732 H   0  0  0  0  0  0  0  0  0  0  0  0
   -1.2344   -2.1696    0.7630 C   0  0  0  0  0  0  0  0  0  0  0  0
   -0.3882   -3.0095    1.0234 O   0  0  0  0  0  0  0  0  0  0  0  0
   -0.9059   -0.8591    0.4709 N   0  0  0  0  0  0  0  0  0  0  0  0
   -1.6696   -0.2962    0.0977 H   0  0  0  0  0  0  0  0  0  0  0  0
    0.4098   -0.1719    0.5035 C   0  0  1  0  0  0  0  0  0  0  0  0
    0.3531    0.5466    1.3260 H   0  0  0  0  0  0  0  0  0  0  0  0
    1.6577   -1.0202    0.8119 C   0  0  0  0  0  0  0  0  0  0  0  0
    2.5289   -0.3652    0.9139 H   0  0  0  0  0  0  0  0  0  0  0  0
    1.5383   -1.5371    1.7694 H   0  0  0  0  0  0  0  0  0  0  0  0
    1.8998   -1.9633   -0.2299 O   0  0  0  0  0  0  0  0  0  0  0  0
    1.2304   -2.6776   -0.1369 H   0  0  0  0  0  0  0  0  0  0  0  0
    0.5844    0.6814   -0.7720 C   0  0  0  0  0  0  0  0  0  0  0  0
   -0.4041    1.2296   -1.2506 O   0  0  0  0  0  0  0  0  0  0  0  0
    1.8269    0.9270   -1.3279 N   0  0  0  0  0  0  0  0  0  0  0  0
    2.5600    0.2752   -1.0521 H   0  0  0  0  0  0  0  0  0  0  0  0
    2.0020    1.6720   -2.5685 C   0  0  0  0  0  0  0  0  0  0  0  0
    1.5603    2.6705   -2.4840 H   0  0  0  0  0  0  0  0  0  0  0  0
    3.0670    1.7871   -2.7919 H   0  0  0  0  0  0  0  0  0  0  0  0
    1.5261    1.1452   -3.4022 H   0  0  0  0  0  0  0  0  0  0  0  0
  1  2  1  0  0  0  0
  2  3  1  0  0  0  0
  2  4  1  0  0  0  0
  2  5  1  0  0  0  0
  5  6  2  0  0  0  0
  5  7  1  0  0  0  0
  7  8  1  0  0  0  0
  7  9  1  0  0  0  0
  9 10  1  0  0  0  0
  9 11  1  0  0  0  0
  9 16  1  0  0  0  0
 11 12  1  0  0  0  0
 11 13  1  0  0  0  0
 11 14  1  0  0  0  0
 14 15  1  0  0  0  0
 16 17  2  0  0  0  0
 16 18  1  0  0  0  0
 18 19  1  0  0  0  0
 18 20  1  0  0  0  0
 20 21  1  0  0  0  0
 20 22  1  0  0  0  0
 20 23  1  0  0  0  0
M  END
$$$$

  -OEChem-01062216093D

 23 22  0     1  0  0  0  0  0999 V2000
   -2.7946   -3.6437    0.9501 H   0  0  0  0  0  0  0  0  0  0  0  0
   -2.6897   -2.5909    0.6730 C   0  0  0  0  0  0  0  0  0  0  0  0
   -3.2777   -1.9855    1.3671 H   0  0  0  0  0  0  0  0  0  0  0  0
   -3.0777   -2.4527   -0.3393 H   0  0  0  0  0  0  0  0  0  0  0  0
   -1.2314   -2.1759    0.7301 C   0  0  0  0  0  0  0  0  0  0  0  0
   -0.3819   -3.0255    0.9460 O   0  0  0  0  0  0  0  0  0  0  0  0
   -0.9025   -0.8642    0.4434 N   0  0  0  0  0  0  0  0  0  0  0  0
   -1.6785   -0.2828    0.1299 H   0  0  0  0  0  0  0  0  0  0  0  0
    0.4115   -0.1756    0.4902 C   0  0  1  0  0  0  0  0  0  0  0  0
    0.3437    0.5436    1.3114 H   0  0  0  0  0  0  0  0  0  0  0  0
    1.6573   -1.0203    0.8193 C   0  0  0  0  0  0  0  0  0  0  0  0
    2.5243   -0.3602    0.9264 H   0  0  0  0  0  0  0  0  0  0  0  0
    1.5258   -1.5318    1.7783 H   0  0  0  0  0  0  0  0  0  0  0  0
    1.9183   -1.9707   -0.2130 O   0  0  0  0  0  0  0  0  0  0  0  0
    1.2444   -2.6830   -0.1261 H   0  0  0  0  0  0  0  0  0  0  0  0
    0.5973    0.6790   -0.7809 C   0  0  0  0  0  0  0  0  0  0  0  0
   -0.3371    1.3804   -1.1543 O   0  0  0  0  0  0  0  0  0  0  0  0
    1.7796    0.6847   -1.4972 N   0  0  0  0  0  0  0  0  0  0  0  0
    2.4147   -0.0859   -1.2844 H   0  0  0  0  0  0  0  0  0  0  0  0
    1.9344    1.3820   -2.7673 C   0  0  0  0  0  0  0  0  0  0  0  0
    1.7043    2.4463   -2.6518 H   0  0  0  0  0  0  0  0  0  0  0  0
    2.9648    1.2909   -3.1240 H   0  0  0  0  0  0  0  0  0  0  0  0
    1.2652    0.9565   -3.5222 H   0  0  0  0  0  0  0  0  0  0  0  0
  1  2  1  0  0  0  0
  2  3  1  0  0  0  0
  2  4  1  0  0  0  0
  2  5  1  0  0  0  0
  5  6  2  0  0  0  0
  5  7  1  0  0  0  0
  7  8  1  0  0  0  0
  7  9  1  0  0  0  0
  9 10  1  0  0  0  0
  9 11  1  0  0  0  0
  9 16  1  0  0  0  0
 11 12  1  0  0  0  0
 11 13  1  0  0  0  0
 11 14  1  0  0  0  0
 14 15  1  0  0  0  0
 16 17  2  0  0  0  0
 16 18  1  0  0  0  0
 18 19  1  0  0  0  0
 18 20  1  0  0  0  0
 20 21  1  0  0  0  0
 20 22  1  0  0  0  0
 20 23  1  0  0  0  0
M  END
$$$$

  -OEChem-01062216093D

 23 22  0     1  0  0  0  0  0999 V2000
   -2.7954   -3.6385    0.9671 H   0  0  0  0  0  0  0  0  0  0  0  0
   -2.6916   -2.5858    0.6888 C   0  0  0  0  0  0  0  0  0  0  0  0
   -3.2641   -1.9791    1.3945 H   0  0  0  0  0  0  0  0  0  0  0  0
   -3.0983   -2.4456   -0.3157 H   0  0  0  0  0  0  0  0  0  0  0  0
   -1.2307   -2.1772    0.7181 C   0  0  0  0  0  0  0  0  0  0  0  0
   -0.3819   -3.0327    0.9130 O   0  0  0  0  0  0  0  0  0  0  0  0
   -0.9017   -0.8659    0.4279 N   0  0  0  0  0  0  0  0  0  0  0  0
   -1.6863   -0.2749    0.1581 H   0  0  0  0  0  0  0  0  0  0  0  0
    0.4124   -0.1772    0.4741 C   0  0  1  0  0  0  0  0  0  0  0  0
    0.3427    0.5443    1.2934 H   0  0  0  0  0  0  0  0  0  0  0  0
    1.6534   -1.0256    0.8163 C   0  0  0  0  0  0  0  0  0  0  0  0
    2.5215   -0.3656    0.9172 H   0  0  0  0  0  0  0  0  0  0  0  0
    1.5164   -1.5262    1.7802 H   0  0  0  0  0  0  0  0  0  0  0  0
    1.9202   -1.9895   -0.2039 O   0  0  0  0  0  0  0  0  0  0  0  0
    1.2452   -2.7007   -0.1084 H   0  0  0  0  0  0  0  0  0  0  0  0
    0.6081    0.6760   -0.7951 C   0  0  0  0  0  0  0  0  0  0  0  0
   -0.2399    1.5186   -1.0664 O   0  0  0  0  0  0  0  0  0  0  0  0
    1.6569    0.4620   -1.6687 N   0  0  0  0  0  0  0  0  0  0  0  0
    2.2065   -0.3817   -1.4916 H   0  0  0  0  0  0  0  0  0  0  0  0
    1.7788    1.1267   -2.9591 C   0  0  0  0  0  0  0  0  0  0  0  0
    1.7700    2.2144   -2.8330 H   0  0  0  0  0  0  0  0  0  0  0  0
    2.7202    0.8451   -3.4406 H   0  0  0  0  0  0  0  0  0  0  0  0
    0.9518    0.8408   -3.6171 H   0  0  0  0  0  0  0  0  0  0  0  0
  1  2  1  0  0  0  0
  2  3  1  0  0  0  0
  2  4  1  0  0  0  0
  2  5  1  0  0  0  0
  5  6  2  0  0  0  0
  5  7  1  0  0  0  0
  7  8  1  0  0  0  0
  7  9  1  0  0  0  0
  9 10  1  0  0  0  0
  9 11  1  0  0  0  0
  9 16  1  0  0  0  0
 11 12  1  0  0  0  0
 11 13  1  0  0  0  0
 11 14  1  0  0  0  0
 14 15  1  0  0  0  0
 16 17  2  0  0  0  0
 16 18  1  0  0  0  0
 18 19  1  0  0  0  0
 18 20  1  0  0  0  0
 20 21  1  0  0  0  0
 20 22  1  0  0  0  0
 20 23  1  0  0  0  0
M  END
$$$$

  -OEChem-01062216093D

 23 22  0     1  0  0  0  0  0999 V2000
   -2.7949   -3.6416    1.0178 H   0  0  0  0  0  0  0  0  0  0  0  0
   -2.6974   -2.5909    0.7298 C   0  0  0  0  0  0  0  0  0  0  0  0
   -3.2494   -1.9788    1.4471 H   0  0  0  0  0  0  0  0  0  0  0  0
   -3.1316   -2.4571   -0.2640 H   0  0  0  0  0  0  0  0  0  0  0  0
   -1.2356   -2.1844    0.7165 C   0  0  0  0  0  0  0  0  0  0  0  0
   -0.3837   -3.0404    0.8944 O   0  0  0  0  0  0  0  0  0  0  0  0
   -0.9125   -0.8749    0.4099 N   0  0  0  0  0  0  0  0  0  0  0  0
   -1.7070   -0.2808    0.1803 H   0  0  0  0  0  0  0  0  0  0  0  0
    0.4002   -0.1817    0.4443 C   0  0  1  0  0  0  0  0  0  0  0  0
    0.3293    0.5467    1.2575 H   0  0  0  0  0  0  0  0  0  0  0  0
    1.6416   -1.0255    0.7971 C   0  0  0  0  0  0  0  0  0  0  0  0
    2.5083   -0.3619    0.8840 H   0  0  0  0  0  0  0  0  0  0  0  0
    1.5070   -1.5097    1.7697 H   0  0  0  0  0  0  0  0  0  0  0  0
    1.9118   -2.0069   -0.2070 O   0  0  0  0  0  0  0  0  0  0  0  0
    1.2406   -2.7199   -0.0949 H   0  0  0  0  0  0  0  0  0  0  0  0
    0.6026    0.6612   -0.8297 C   0  0  0  0  0  0  0  0  0  0  0  0
   -0.1152    1.6389   -1.0020 O   0  0  0  0  0  0  0  0  0  0  0  0
    1.4534    0.2616   -1.8411 N   0  0  0  0  0  0  0  0  0  0  0  0
    1.9448   -0.6218   -1.6868 H   0  0  0  0  0  0  0  0  0  0  0  0
    1.5685    0.9339   -3.1278 C   0  0  0  0  0  0  0  0  0  0  0  0
    1.8242    1.9894   -2.9877 H   0  0  0  0  0  0  0  0  0  0  0  0
    2.3549    0.4659   -3.7277 H   0  0  0  0  0  0  0  0  0  0  0  0
    0.6250    0.8690   -3.6792 H   0  0  0  0  0  0  0  0  0  0  0  0
  1  2  1  0  0  0  0
  2  3  1  0  0  0  0
  2  4  1  0  0  0  0
  2  5  1  0  0  0  0
  5  6  2  0  0  0  0
  5  7  1  0  0  0  0
  7  8  1  0  0  0  0
  7  9  1  0  0  0  0
  9 10  1  0  0  0  0
  9 11  1  0  0  0  0
  9 16  1  0  0  0  0
 11 12  1  0  0  0  0
 11 13  1  0  0  0  0
 11 14  1  0  0  0  0
 14 15  1  0  0  0  0
 16 17  2  0  0  0  0
 16 18  1  0  0  0  0
 18 19  1  0  0  0  0
 18 20  1  0  0  0  0
 20 21  1  0  0  0  0
 20 22  1  0  0  0  0
 20 23  1  0  0  0  0
M  END
$$$$

  -OEChem-01062216093D

 23 22  0     1  0  0  0  0  0999 V2000
   -2.7829   -3.6629    1.0998 H   0  0  0  0  0  0  0  0  0  0  0  0
   -2.7023   -2.6149    0.7969 C   0  0  0  0  0  0  0  0  0  0  0  0
   -3.2335   -1.9984    1.5261 H   0  0  0  0  0  0  0  0  0  0  0  0
   -3.1716   -2.4951   -0.1828 H   0  0  0  0  0  0  0  0  0  0  0  0
   -1.2445   -2.1992    0.7278 C   0  0  0  0  0  0  0  0  0  0  0  0
   -0.3813   -3.0480    0.8853 O   0  0  0  0  0  0  0  0  0  0  0  0
   -0.9413   -0.8914    0.3935 N   0  0  0  0  0  0  0  0  0  0  0  0
   -1.7503   -0.3039    0.2029 H   0  0  0  0  0  0  0  0  0  0  0  0
    0.3640   -0.1822    0.4060 C   0  0  1  0  0  0  0  0  0  0  0  0
    0.2921    0.5551    1.2113 H   0  0  0  0  0  0  0  0  0  0  0  0
    1.6170   -1.0085    0.7566 C   0  0  0  0  0  0  0  0  0  0  0  0
    2.4774   -0.3346    0.8240 H   0  0  0  0  0  0  0  0  0  0  0  0
    1.4984   -1.4809    1.7373 H   0  0  0  0  0  0  0  0  0  0  0  0
    1.8875   -2.0000   -0.2379 O   0  0  0  0  0  0  0  0  0  0  0  0
    1.2285   -2.7209   -0.1044 H   0  0  0  0  0  0  0  0  0  0  0  0
    0.5604    0.6420   -0.8800 C   0  0  0  0  0  0  0  0  0  0  0  0
    0.0230    1.7393   -0.9627 O   0  0  0  0  0  0  0  0  0  0  0  0
    1.1628    0.0996   -1.9976 N   0  0  0  0  0  0  0  0  0  0  0  0
    1.6243   -0.8018   -1.8580 H   0  0  0  0  0  0  0  0  0  0  0  0
    1.3375    0.8098   -3.2570 C   0  0  0  0  0  0  0  0  0  0  0  0
    1.9166    1.7262   -3.1034 H   0  0  0  0  0  0  0  0  0  0  0  0
    1.8711    0.1791   -3.9744 H   0  0  0  0  0  0  0  0  0  0  0  0
    0.3651    1.0737   -3.6855 H   0  0  0  0  0  0  0  0  0  0  0  0
  1  2  1  0  0  0  0
  2  3  1  0  0  0  0
  2  4  1  0  0  0  0
  2  5  1  0  0  0  0
  5  6  2  0  0  0  0
  5  7  1  0  0  0  0
  7  8  1  0  0  0  0
  7  9  1  0  0  0  0
  9 10  1  0  0  0  0
  9 11  1  0  0  0  0
  9 16  1  0  0  0  0
 11 12  1  0  0  0  0
 11 13  1  0  0  0  0
 11 14  1  0  0  0  0
 14 15  1  0  0  0  0
 16 17  2  0  0  0  0
 16 18  1  0  0  0  0
 18 19  1  0  0  0  0
 18 20  1  0  0  0  0
 20 21  1  0  0  0  0
 20 22  1  0  0  0  0
 20 23  1  0  0  0  0
M  END
$$$$

  -OEChem-01062216093D

 23 22  0     1  0  0  0  0  0999 V2000
   -2.7688   -3.6737    1.1585 H   0  0  0  0  0  0  0  0  0  0  0  0
   -2.7018   -2.6308    0.8356 C   0  0  0  0  0  0  0  0  0  0  0  0
   -3.2292   -2.0060    1.5605 H   0  0  0  0  0  0  0  0  0  0  0  0
   -3.1849   -2.5331   -0.1398 H   0  0  0  0  0  0  0  0  0  0  0  0
   -1.2488   -2.2038    0.7403 C   0  0  0  0  0  0  0  0  0  0  0  0
   -0.3772   -3.0467    0.8813 O   0  0  0  0  0  0  0  0  0  0  0  0
   -0.9621   -0.8955    0.3926 N   0  0  0  0  0  0  0  0  0  0  0  0
   -1.7808   -0.3154    0.2242 H   0  0  0  0  0  0  0  0  0  0  0  0
    0.3369   -0.1729    0.3918 C   0  0  1  0  0  0  0  0  0  0  0  0
    0.2693    0.5632    1.1989 H   0  0  0  0  0  0  0  0  0  0  0  0
    1.5989   -0.9926    0.7185 C   0  0  0  0  0  0  0  0  0  0  0  0
    2.4568   -0.3146    0.7766 H   0  0  0  0  0  0  0  0  0  0  0  0
    1.4997   -1.4736    1.6971 H   0  0  0  0  0  0  0  0  0  0  0  0
    1.8555   -1.9723   -0.2913 O   0  0  0  0  0  0  0  0  0  0  0  0
    1.2177   -2.7079   -0.1384 H   0  0  0  0  0  0  0  0  0  0  0  0
    0.5264    0.6442   -0.8984 C   0  0  0  0  0  0  0  0  0  0  0  0
    0.2127    1.8276   -0.9051 O   0  0  0  0  0  0  0  0  0  0  0  0
    0.8433    0.0200   -2.0885 N   0  0  0  0  0  0  0  0  0  0  0  0
    1.2215   -0.9237   -1.9909 H   0  0  0  0  0  0  0  0  0  0  0  0
    1.0457    0.7361   -3.3408 C   0  0  0  0  0  0  0  0  0  0  0  0
    1.8724    1.4479   -3.2467 H   0  0  0  0  0  0  0  0  0  0  0  0
    1.2835    0.0312   -4.1432 H   0  0  0  0  0  0  0  0  0  0  0  0
    0.1394    1.2830   -3.6208 H   0  0  0  0  0  0  0  0  0  0  0  0
  1  2  1  0  0  0  0
  2  3  1  0  0  0  0
  2  4  1  0  0  0  0
  2  5  1  0  0  0  0
  5  6  2  0  0  0  0
  5  7  1  0  0  0  0
  7  8  1  0  0  0  0
  7  9  1  0  0  0  0
  9 10  1  0  0  0  0
  9 11  1  0  0  0  0
  9 16  1  0  0  0  0
 11 12  1  0  0  0  0
 11 13  1  0  0  0  0
 11 14  1  0  0  0  0
 14 15  1  0  0  0  0
 16 17  2  0  0  0  0
 16 18  1  0  0  0  0
 18 19  1  0  0  0  0
 18 20  1  0  0  0  0
 20 21  1  0  0  0  0
 20 22  1  0  0  0  0
 20 23  1  0  0  0  0
M  END
$$$$

  -OEChem-01062216093D

 23 22  0     1  0  0  0  0  0999 V2000
   -2.7542   -3.6840    1.2208 H   0  0  0  0  0  0  0  0  0  0  0  0
   -2.7015   -2.6476    0.8751 C   0  0  0  0  0  0  0  0  0  0  0  0
   -3.2196   -2.0119    1.5973 H   0  0  0  0  0  0  0  0  0  0  0  0
   -3.2041   -2.5736   -0.0925 H   0  0  0  0  0  0  0  0  0  0  0  0
   -1.2536   -2.2128    0.7428 C   0  0  0  0  0  0  0  0  0  0  0  0
   -0.3745   -3.0516    0.8576 O   0  0  0  0  0  0  0  0  0  0  0  0
   -0.9828   -0.9020    0.3911 N   0  0  0  0  0  0  0  0  0  0  0  0
   -1.8102   -0.3282    0.2474 H   0  0  0  0  0  0  0  0  0  0  0  0
    0.3099   -0.1651    0.3859 C   0  0  1  0  0  0  0  0  0  0  0  0
    0.2432    0.5643    1.1993 H   0  0  0  0  0  0  0  0  0  0  0  0
    1.5806   -0.9779    0.6852 C   0  0  0  0  0  0  0  0  0  0  0  0
    2.4347   -0.2947    0.7417 H   0  0  0  0  0  0  0  0  0  0  0  0
    1.4997   -1.4758    1.6568 H   0  0  0  0  0  0  0  0  0  0  0  0
    1.8242   -1.9359   -0.3474 O   0  0  0  0  0  0  0  0  0  0  0  0
    1.2063   -2.6860   -0.1870 H   0  0  0  0  0  0  0  0  0  0  0  0
    0.4990    0.6546   -0.9022 C   0  0  0  0  0  0  0  0  0  0  0  0
    0.4558    1.8767   -0.8478 O   0  0  0  0  0  0  0  0  0  0  0  0
    0.5174    0.0270   -2.1327 N   0  0  0  0  0  0  0  0  0  0  0  0
    0.7416   -0.9667   -2.0969 H   0  0  0  0  0  0  0  0  0  0  0  0
    0.7389    0.7445   -3.3815 C   0  0  0  0  0  0  0  0  0  0  0  0
    1.7229    1.2250   -3.3779 H   0  0  0  0  0  0  0  0  0  0  0  0
    0.6933    0.0522   -4.2277 H   0  0  0  0  0  0  0  0  0  0  0  0
   -0.0282    1.5128   -3.5249 H   0  0  0  0  0  0  0  0  0  0  0  0
  1  2  1  0  0  0  0
  2  3  1  0  0  0  0
  2  4  1  0  0  0  0
  2  5  1  0  0  0  0
  5  6  2  0  0  0  0
  5  7  1  0  0  0  0
  7  8  1  0  0  0  0
  7  9  1  0  0  0  0
  9 10  1  0  0  0  0
  9 11  1  0  0  0  0
  9 16  1  0  0  0  0
 11 12  1  0  0  0  0
 11 13  1  0  0  0  0
 11 14  1  0  0  0  0
 14 15  1  0  0  0  0
 16 17  2  0  0  0  0
 16 18  1  0  0  0  0
 18 19  1  0  0  0  0
 18 20  1  0  0  0  0
 20 21  1  0  0  0  0
 20 22  1  0  0  0  0
 20 23  1  0  0  0  0
M  END
$$$$

  -OEChem-01062216093D

 23 22  0     1  0  0  0  0  0999 V2000
   -2.8438   -3.6316    1.0241 H   0  0  0  0  0  0  0  0  0  0  0  0
   -2.7456   -2.5890    0.7082 C   0  0  0  0  0  0  0  0  0  0  0  0
   -3.4348   -1.9780    1.2960 H   0  0  0  0  0  0  0  0  0  0  0  0
   -3.0138   -2.5167   -0.3485 H   0  0  0  0  0  0  0  0  0  0  0  0
   -1.3206   -2.1097    0.9163 C   0  0  0  0  0  0  0  0  0  0  0  0
   -0.5282   -2.8640    1.4533 O   0  0  0  0  0  0  0  0  0  0  0  0
   -1.0053   -0.8161    0.5356 N   0  0  0  0  0  0  0  0  0  0  0  0
   -1.7788   -0.3055    0.1186 H   0  0  0  0  0  0  0  0  0  0  0  0
    0.3148   -0.1318    0.4760 C   0  0  1  0  0  0  0  0  0  0  0  0
    0.3523    0.5822    1.3042 H   0  0  0  0  0  0  0  0  0  0  0  0
    1.5578   -1.0338    0.5979 C   0  0  0  0  0  0  0  0  0  0  0  0
    2.4526   -0.4036    0.6395 H   0  0  0  0  0  0  0  0  0  0  0  0
    1.5323   -1.5971    1.5345 H   0  0  0  0  0  0  0  0  0  0  0  0
    1.6744   -1.9191   -0.5271 O   0  0  0  0  0  0  0  0  0  0  0  0
    2.2321   -2.6817   -0.2894 H   0  0  0  0  0  0  0  0  0  0  0  0
    0.4681    0.6594   -0.8349 C   0  0  0  0  0  0  0  0  0  0  0  0
    0.7660    1.8459   -0.7955 O   0  0  0  0  0  0  0  0  0  0  0  0
    0.1036    0.0853   -2.0385 N   0  0  0  0  0  0  0  0  0  0  0  0
    0.1117   -0.9338   -2.0268 H   0  0  0  0  0  0  0  0  0  0  0  0
    0.2890    0.7621   -3.3156 C   0  0  0  0  0  0  0  0  0  0  0  0
    1.3508    0.9645   -3.4911 H   0  0  0  0  0  0  0  0  0  0  0  0
   -0.0861    0.1372   -4.1317 H   0  0  0  0  0  0  0  0  0  0  0  0
   -0.2575    1.7110   -3.3306 H   0  0  0  0  0  0  0  0  0  0  0  0
  1  2  1  0  0  0  0
  2  3  1  0  0  0  0
  2  4  1  0  0  0  0
  2  5  1  0  0  0  0
  5  6  2  0  0  0  0
  5  7  1  0  0  0  0
  7  8  1  0  0  0  0
  7  9  1  0  0  0  0
  9 10  1  0  0  0  0
  9 11  1  0  0  0  0
  9 16  1  0  0  0  0
 11 12  1  0  0  0  0
 11 13  1  0  0  0  0
 11 14  1  0  0  0  0
 14 15  1  0  0  0  0
 16 17  2  0  0  0  0
 16 18  1  0  0  0  0
 18 19  1  0  0  0  0
 18 20  1  0  0  0  0
 20 21  1  0  0  0  0
 20 22  1  0  0  0  0
 20 23  1  0  0  0  0
M  END
$$$$

  -OEChem-01062216093D

 23 22  0     1  0  0  0  0  0999 V2000
   -2.8418   -3.6401    1.0345 H   0  0  0  0  0  0  0  0  0  0  0  0
   -2.7516   -2.5943    0.7266 C   0  0  0  0  0  0  0  0  0  0  0  0
   -3.4405   -1.9918    1.3236 H   0  0  0  0  0  0  0  0  0  0  0  0
   -3.0267   -2.5149   -0.3278 H   0  0  0  0  0  0  0  0  0  0  0  0
   -1.3281   -2.1093    0.9309 C   0  0  0  0  0  0  0  0  0  0  0  0
   -0.5360   -2.8570    1.4764 O   0  0  0  0  0  0  0  0  0  0  0  0
   -1.0171   -0.8161    0.5445 N   0  0  0  0  0  0  0  0  0  0  0  0
   -1.7964   -0.3038    0.1406 H   0  0  0  0  0  0  0  0  0  0  0  0
    0.3019   -0.1269    0.4818 C   0  0  1  0  0  0  0  0  0  0  0  0
    0.3456    0.5834    1.3126 H   0  0  0  0  0  0  0  0  0  0  0  0
    1.5433   -1.0329    0.5816 C   0  0  0  0  0  0  0  0  0  0  0  0
    2.4411   -0.4068    0.6215 H   0  0  0  0  0  0  0  0  0  0  0  0
    1.5282   -1.6096    1.5100 H   0  0  0  0  0  0  0  0  0  0  0  0
    1.6393   -1.8994   -0.5596 O   0  0  0  0  0  0  0  0  0  0  0  0
    2.2581   -2.6275   -0.3719 H   0  0  0  0  0  0  0  0  0  0  0  0
    0.4655    0.6642   -0.8290 C   0  0  0  0  0  0  0  0  0  0  0  0
    1.0196    1.7557   -0.8138 O   0  0  0  0  0  0  0  0  0  0  0  0
   -0.1621    0.2330   -1.9843 N   0  0  0  0  0  0  0  0  0  0  0  0
   -0.3727   -0.7624   -1.9962 H   0  0  0  0  0  0  0  0  0  0  0  0
    0.0054    0.9151   -3.2616 C   0  0  0  0  0  0  0  0  0  0  0  0
    1.0594    0.9193   -3.5587 H   0  0  0  0  0  0  0  0  0  0  0  0
   -0.5734    0.4082   -4.0395 H   0  0  0  0  0  0  0  0  0  0  0  0
   -0.3451    1.9503   -3.1924 H   0  0  0  0  0  0  0  0  0  0  0  0
  1  2  1  0  0  0  0
  2  3  1  0  0  0  0
  2  4  1  0  0  0  0
  2  5  1  0  0  0  0
  5  6  2  0  0  0  0
  5  7  1  0  0  0  0
  7  8  1  0  0  0  0
  7  9  1  0  0  0  0
  9 10  1  0  0  0  0
  9 11  1  0  0  0  0
  9 16  1  0  0  0  0
 11 12  1  0  0  0  0
 11 13  1  0  0  0  0
 11 14  1  0  0  0  0
 14 15  1  0  0  0  0
 16 17  2  0  0  0  0
 16 18  1  0  0  0  0
 18 19  1  0  0  0  0
 18 20  1  0  0  0  0
 20 21  1  0  0  0  0
 20 22  1  0  0  0  0
 20 23  1  0  0  0  0
M  END
$$$$

  -OEChem-01062216093D

 23 22  0     1  0  0  0  0  0999 V2000
   -2.8426   -3.6457    1.0532 H   0  0  0  0  0  0  0  0  0  0  0  0
   -2.7540   -2.5997    0.7451 C   0  0  0  0  0  0  0  0  0  0  0  0
   -3.4352   -1.9965    1.3502 H   0  0  0  0  0  0  0  0  0  0  0  0
   -3.0406   -2.5196   -0.3062 H   0  0  0  0  0  0  0  0  0  0  0  0
   -1.3271   -2.1175    0.9335 C   0  0  0  0  0  0  0  0  0  0  0  0
   -0.5320   -2.8672    1.4714 O   0  0  0  0  0  0  0  0  0  0  0  0
   -1.0196   -0.8240    0.5431 N   0  0  0  0  0  0  0  0  0  0  0  0
   -1.8098   -0.2999    0.1786 H   0  0  0  0  0  0  0  0  0  0  0  0
    0.2962   -0.1263    0.4779 C   0  0  1  0  0  0  0  0  0  0  0  0
    0.3384    0.5853    1.3075 H   0  0  0  0  0  0  0  0  0  0  0  0
    1.5377   -1.0325    0.5770 C   0  0  0  0  0  0  0  0  0  0  0  0
    2.4372   -0.4088    0.6151 H   0  0  0  0  0  0  0  0  0  0  0  0
    1.5245   -1.6099    1.5049 H   0  0  0  0  0  0  0  0  0  0  0  0
    1.6267   -1.8966   -0.5660 O   0  0  0  0  0  0  0  0  0  0  0  0
    2.2518   -2.6209   -0.3872 H   0  0  0  0  0  0  0  0  0  0  0  0
    0.4676    0.6657   -0.8332 C   0  0  0  0  0  0  0  0  0  0  0  0
    1.2156    1.6349   -0.8615 O   0  0  0  0  0  0  0  0  0  0  0  0
   -0.3745    0.4308   -1.9069 N   0  0  0  0  0  0  0  0  0  0  0  0
   -0.7788   -0.5012   -1.9271 H   0  0  0  0  0  0  0  0  0  0  0  0
   -0.2369    1.1434   -3.1714 C   0  0  0  0  0  0  0  0  0  0  0  0
    0.7473    0.9541   -3.6128 H   0  0  0  0  0  0  0  0  0  0  0  0
   -1.0047    0.8121   -3.8771 H   0  0  0  0  0  0  0  0  0  0  0  0
   -0.3529    2.2219   -3.0198 H   0  0  0  0  0  0  0  0  0  0  0  0
  1  2  1  0  0  0  0
  2  3  1  0  0  0  0
  2  4  1  0  0  0  0
  2  5  1  0  0  0  0
  5  6  2  0  0  0  0
  5  7  1  0  0  0  0
  7  8  1  0  0  0  0
  7  9  1  0  0  0  0
  9 10  1  0  0  0  0
  9 11  1  0  0  0  0
  9 16  1  0  0  0  0
 11 12  1  0  0  0  0
 11 13  1  0  0  0  0
 11 14  1  0  0  0  0
 14 15  1  0  0  0  0
 16 17  2  0  0  0  0
 16 18  1  0  0  0  0
 18 19  1  0  0  0  0
 18 20  1  0  0  0  0
 20 21  1  0  0  0  0
 20 22  1  0  0  0  0
 20 23  1  0  0  0  0
M  END
$$$$

  -OEChem-01062216093D

 23 22  0     1  0  0  0  0  0999 V2000
   -2.8504   -3.6443    1.0869 H   0  0  0  0  0  0  0  0  0  0  0  0
   -2.7576   -2.6024    0.7668 C   0  0  0  0  0  0  0  0  0  0  0  0
   -3.4217   -1.9874    1.3788 H   0  0  0  0  0  0  0  0  0  0  0  0
   -3.0635   -2.5302   -0.2795 H   0  0  0  0  0  0  0  0  0  0  0  0
   -1.3228   -2.1320    0.9229 C   0  0  0  0  0  0  0  0  0  0  0  0
   -0.5234   -2.8892    1.4436 O   0  0  0  0  0  0  0  0  0  0  0  0
   -1.0181   -0.8377    0.5312 N   0  0  0  0  0  0  0  0  0  0  0  0
   -1.8210   -0.2984    0.2223 H   0  0  0  0  0  0  0  0  0  0  0  0
    0.2947   -0.1318    0.4655 C   0  0  1  0  0  0  0  0  0  0  0  0
    0.3312    0.5821    1.2933 H   0  0  0  0  0  0  0  0  0  0  0  0
    1.5370   -1.0373    0.5781 C   0  0  0  0  0  0  0  0  0  0  0  0
    2.4384   -0.4164    0.6194 H   0  0  0  0  0  0  0  0  0  0  0  0
    1.5169   -1.6085    1.5095 H   0  0  0  0  0  0  0  0  0  0  0  0
    1.6294   -1.9092   -0.5584 O   0  0  0  0  0  0  0  0  0  0  0  0
    2.2600   -2.6275   -0.3766 H   0  0  0  0  0  0  0  0  0  0  0  0
    0.4715    0.6633   -0.8462 C   0  0  0  0  0  0  0  0  0  0  0  0
    1.3680    1.4934   -0.9367 O   0  0  0  0  0  0  0  0  0  0  0  0
   -0.5279    0.6625   -1.8061 N   0  0  0  0  0  0  0  0  0  0  0  0
   -1.1071   -0.1709   -1.8155 H   0  0  0  0  0  0  0  0  0  0  0  0
   -0.4165    1.4272   -3.0431 C   0  0  0  0  0  0  0  0  0  0  0  0
    0.4488    1.0916   -3.6245 H   0  0  0  0  0  0  0  0  0  0  0  0
   -1.3166    1.2959   -3.6512 H   0  0  0  0  0  0  0  0  0  0  0  0
   -0.3023    2.4947   -2.8264 H   0  0  0  0  0  0  0  0  0  0  0  0
  1  2  1  0  0  0  0
  2  3  1  0  0  0  0
  2  4  1  0  0  0  0
  2  5  1  0  0  0  0
  5  6  2  0  0  0  0
  5  7  1  0  0  0  0
  7  8  1  0  0  0  0
  7  9  1  0  0  0  0
  9 10  1  0  0  0  0
  9 11  1  0  0  0  0
  9 16  1  0  0  0  0
 11 12  1  0  0  0  0
 11 13  1  0  0  0  0
 11 14  1  0  0  0  0
 14 15  1  0  0  0  0
 16 17  2  0  0  0  0
 16 18  1  0  0  0  0
 18 19  1  0  0  0  0
 18 20  1  0  0  0  0
 20 21  1  0  0  0  0
 20 22  1  0  0  0  0
 20 23  1  0  0  0  0
M  END
$$$$

  -OEChem-01062216093D

 23 22  0     1  0  0  0  0  0999 V2000
   -2.8499   -3.6464    1.0978 H   0  0  0  0  0  0  0  0  0  0  0  0
   -2.7577   -2.6028    0.7827 C   0  0  0  0  0  0  0  0  0  0  0  0
   -3.4072   -1.9882    1.4107 H   0  0  0  0  0  0  0  0  0  0  0  0
   -3.0826   -2.5228   -0.2575 H   0  0  0  0  0  0  0  0  0  0  0  0
   -1.3175   -2.1415    0.9148 C   0  0  0  0  0  0  0  0  0  0  0  0
   -0.5175   -2.9038    1.4267 O   0  0  0  0  0  0  0  0  0  0  0  0
   -1.0143   -0.8469    0.5204 N   0  0  0  0  0  0  0  0  0  0  0  0
   -1.8262   -0.2964    0.2624 H   0  0  0  0  0  0  0  0  0  0  0  0
    0.2978   -0.1379    0.4495 C   0  0  1  0  0  0  0  0  0  0  0  0
    0.3316    0.5798    1.2737 H   0  0  0  0  0  0  0  0  0  0  0  0
    1.5377   -1.0480    0.5789 C   0  0  0  0  0  0  0  0  0  0  0  0
    2.4431   -0.4329    0.6186 H   0  0  0  0  0  0  0  0  0  0  0  0
    1.5107   -1.6079    1.5171 H   0  0  0  0  0  0  0  0  0  0  0  0
    1.6299   -1.9343   -0.5465 O   0  0  0  0  0  0  0  0  0  0  0  0
    2.2699   -2.6432   -0.3621 H   0  0  0  0  0  0  0  0  0  0  0  0
    0.4749    0.6587   -0.8650 C   0  0  0  0  0  0  0  0  0  0  0  0
    1.4869    1.3257   -1.0468 O   0  0  0  0  0  0  0  0  0  0  0  0
   -0.6183    0.9157   -1.6783 N   0  0  0  0  0  0  0  0  0  0  0  0
   -1.3575    0.2233   -1.6419 H   0  0  0  0  0  0  0  0  0  0  0  0
   -0.5189    1.7385   -2.8792 C   0  0  0  0  0  0  0  0  0  0  0  0
    0.2113    1.3136   -3.5761 H   0  0  0  0  0  0  0  0  0  0  0  0
   -1.4892    1.7924   -3.3822 H   0  0  0  0  0  0  0  0  0  0  0  0
   -0.2087    2.7569   -2.6227 H   0  0  0  0  0  0  0  0  0  0  0  0
  1  2  1  0  0  0  0
  2  3  1  0  0  0  0
  2  4  1  0  0  0  0
  2  5  1  0  0  0  0
  5  6  2  0  0  0  0
  5  7  1  0  0  0  0
  7  8  1  0  0  0  0
  7  9  1  0  0  0  0
  9 10  1  0  0  0  0
  9 11  1  0  0  0  0
  9 16  1  0  0  0  0
 11 12  1  0  0  0  0
 11 13  1  0  0  0  0
 11 14  1  0  0  0  0
 14 15  1  0  0  0  0
 16 17  2  0  0  0  0
 16 18  1  0  0  0  0
 18 19  1  0  0  0  0
 18 20  1  0  0  0  0
 20 21  1  0  0  0  0
 20 22  1  0  0  0  0
 20 23  1  0  0  0  0
M  END
$$$$

  -OEChem-01062216093D

 23 22  0     1  0  0  0  0  0999 V2000
   -2.6588   -3.6536    1.0988 H   0  0  0  0  0  0  0  0  0  0  0  0
   -2.5667   -2.6729    0.6231 C   0  0  0  0  0  0  0  0  0  0  0  0
   -3.4627   -2.0886    0.8456 H   0  0  0  0  0  0  0  0  0  0  0  0
   -2.4882   -2.8152   -0.4575 H   0  0  0  0  0  0  0  0  0  0  0  0
   -1.3339   -1.9558    1.1410 C   0  0  0  0  0  0  0  0  0  0  0  0
   -0.7223   -2.4386    2.0784 O   0  0  0  0  0  0  0  0  0  0  0  0
   -1.0445   -0.6920    0.6564 N   0  0  0  0  0  0  0  0  0  0  0  0
   -1.6981   -0.4380   -0.0756 H   0  0  0  0  0  0  0  0  0  0  0  0
    0.3182   -0.1192    0.4577 C   0  0  1  0  0  0  0  0  0  0  0  0
    0.4783    0.6296    1.2381 H   0  0  0  0  0  0  0  0  0  0  0  0
    1.4663   -1.1518    0.5689 C   0  0  0  0  0  0  0  0  0  0  0  0
    2.4255   -0.6277    0.5014 H   0  0  0  0  0  0  0  0  0  0  0  0
    1.4670   -1.6505    1.5405 H   0  0  0  0  0  0  0  0  0  0  0  0
    1.3908   -2.1091   -0.4984 O   0  0  0  0  0  0  0  0  0  0  0  0
    2.1364   -2.7315   -0.4450 H   0  0  0  0  0  0  0  0  0  0  0  0
    0.4452    0.6062   -0.9064 C   0  0  0  0  0  0  0  0  0  0  0  0
    1.5276    0.8201   -1.4393 O   0  0  0  0  0  0  0  0  0  0  0  0
   -0.6759    1.2037   -1.4653 N   0  0  0  0  0  0  0  0  0  0  0  0
   -1.4942    1.2818   -0.8715 H   0  0  0  0  0  0  0  0  0  0  0  0
   -0.6086    2.0502   -2.6524 C   0  0  0  0  0  0  0  0  0  0  0  0
   -0.1438    1.5095   -3.4839 H   0  0  0  0  0  0  0  0  0  0  0  0
   -1.6147    2.3510   -2.9601 H   0  0  0  0  0  0  0  0  0  0  0  0
   -0.0226    2.9526   -2.4481 H   0  0  0  0  0  0  0  0  0  0  0  0
  1  2  1  0  0  0  0
  2  3  1  0  0  0  0
  2  4  1  0  0  0  0
  2  5  1  0  0  0  0
  5  6  2  0  0  0  0
  5  7  1  0  0  0  0
  7  8  1  0  0  0  0
  7  9  1  0  0  0  0
  9 10  1  0  0  0  0
  9 11  1  0  0  0  0
  9 16  1  0  0  0  0
 11 12  1  0  0  0  0
 11 13  1  0  0  0  0
 11 14  1  0  0  0  0
 14 15  1  0  0  0  0
 16 17  2  0  0  0  0
 16 18  1  0  0  0  0
 18 19  1  0  0  0  0
 18 20  1  0  0  0  0
 20 21  1  0  0  0  0
 20 22  1  0  0  0  0
 20 23  1  0  0  0  0
M  END
$$$$

  -OEChem-01062216093D

 23 22  0     1  0  0  0  0  0999 V2000
   -2.6553   -3.6507    1.0759 H   0  0  0  0  0  0  0  0  0  0  0  0
   -2.5685   -2.6637    0.6127 C   0  0  0  0  0  0  0  0  0  0  0  0
   -3.4631   -2.0832    0.8499 H   0  0  0  0  0  0  0  0  0  0  0  0
   -2.4979   -2.7913   -0.4703 H   0  0  0  0  0  0  0  0  0  0  0  0
   -1.3328   -1.9519    1.1306 C   0  0  0  0  0  0  0  0  0  0  0  0
   -0.7230   -2.4361    2.0688 O   0  0  0  0  0  0  0  0  0  0  0  0
   -1.0401   -0.6879    0.6489 N   0  0  0  0  0  0  0  0  0  0  0  0
   -1.6983   -0.4204   -0.0760 H   0  0  0  0  0  0  0  0  0  0  0  0
    0.3224   -0.1208    0.4440 C   0  0  1  0  0  0  0  0  0  0  0  0
    0.4849    0.6324    1.2197 H   0  0  0  0  0  0  0  0  0  0  0  0
    1.4707   -1.1512    0.5716 C   0  0  0  0  0  0  0  0  0  0  0  0
    2.4266   -0.6226    0.4934 H   0  0  0  0  0  0  0  0  0  0  0  0
    1.4725   -1.6324    1.5522 H   0  0  0  0  0  0  0  0  0  0  0  0
    1.4026   -2.1282   -0.4780 O   0  0  0  0  0  0  0  0  0  0  0  0
    2.1611   -2.7342   -0.4256 H   0  0  0  0  0  0  0  0  0  0  0  0
    0.4224    0.6033   -0.9220 C   0  0  0  0  0  0  0  0  0  0  0  0
    1.4373    0.6258   -1.6073 O   0  0  0  0  0  0  0  0  0  0  0  0
   -0.6156    1.4474   -1.2867 N   0  0  0  0  0  0  0  0  0  0  0  0
   -1.3307    1.6211   -0.5873 H   0  0  0  0  0  0  0  0  0  0  0  0
   -0.5476    2.3359   -2.4422 C   0  0  0  0  0  0  0  0  0  0  0  0
   -0.3610    1.7627   -3.3568 H   0  0  0  0  0  0  0  0  0  0  0  0
   -1.4928    2.8742   -2.5619 H   0  0  0  0  0  0  0  0  0  0  0  0
    0.2565    3.0689   -2.3164 H   0  0  0  0  0  0  0  0  0  0  0  0
  1  2  1  0  0  0  0
  2  3  1  0  0  0  0
  2  4  1  0  0  0  0
  2  5  1  0  0  0  0
  5  6  2  0  0  0  0
  5  7  1  0  0  0  0
  7  8  1  0  0  0  0
  7  9  1  0  0  0  0
  9 10  1  0  0  0  0
  9 11  1  0  0  0  0
  9 16  1  0  0  0  0
 11 12  1  0  0  0  0
 11 13  1  0  0  0  0
 11 14  1  0  0  0  0
 14 15  1  0  0  0  0
 16 17  2  0  0  0  0
 16 18  1  0  0  0  0
 18 19  1  0  0  0  0
 18 20  1  0  0  0  0
 20 21  1  0  0  0  0
 20 22  1  0  0  0  0
 20 23  1  0  0  0  0
M  END
$$$$

  -OEChem-01062216093D

 23 22  0     1  0  0  0  0  0999 V2000
   -2.6608   -3.6567    1.0392 H   0  0  0  0  0  0  0  0  0  0  0  0
   -2.5859   -2.6524    0.6126 C   0  0  0  0  0  0  0  0  0  0  0  0
   -3.4683   -2.0781    0.9041 H   0  0  0  0  0  0  0  0  0  0  0  0
   -2.5552   -2.7377   -0.4764 H   0  0  0  0  0  0  0  0  0  0  0  0
   -1.3289   -1.9654    1.1127 C   0  0  0  0  0  0  0  0  0  0  0  0
   -0.7014   -2.4769    2.0246 O   0  0  0  0  0  0  0  0  0  0  0  0
   -1.0354   -0.6951    0.6483 N   0  0  0  0  0  0  0  0  0  0  0  0
   -1.7127   -0.3957   -0.0465 H   0  0  0  0  0  0  0  0  0  0  0  0
    0.3230   -0.1238    0.4368 C   0  0  1  0  0  0  0  0  0  0  0  0
    0.4837    0.6247    1.2172 H   0  0  0  0  0  0  0  0  0  0  0  0
    1.4807   -1.1435    0.5719 C   0  0  0  0  0  0  0  0  0  0  0  0
    2.4292   -0.6034    0.4828 H   0  0  0  0  0  0  0  0  0  0  0  0
    1.4886   -1.6105    1.5595 H   0  0  0  0  0  0  0  0  0  0  0  0
    1.4309   -2.1378   -0.4620 O   0  0  0  0  0  0  0  0  0  0  0  0
    2.1892   -2.7416   -0.3913 H   0  0  0  0  0  0  0  0  0  0  0  0
    0.4017    0.6200   -0.9196 C   0  0  0  0  0  0  0  0  0  0  0  0
    1.2795    0.4528   -1.7562 O   0  0  0  0  0  0  0  0  0  0  0  0
   -0.4632    1.6858   -1.1096 N   0  0  0  0  0  0  0  0  0  0  0  0
   -1.0679    1.9365   -0.3330 H   0  0  0  0  0  0  0  0  0  0  0  0
   -0.3870    2.5852   -2.2558 C   0  0  0  0  0  0  0  0  0  0  0  0
   -0.4823    2.0233   -3.1911 H   0  0  0  0  0  0  0  0  0  0  0  0
   -1.1955    3.3212   -2.2134 H   0  0  0  0  0  0  0  0  0  0  0  0
    0.5689    3.1195   -2.2618 H   0  0  0  0  0  0  0  0  0  0  0  0
  1  2  1  0  0  0  0
  2  3  1  0  0  0  0
  2  4  1  0  0  0  0
  2  5  1  0  0  0  0
  5  6  2  0  0  0  0
  5  7  1  0  0  0  0
  7  8  1  0  0  0  0
  7  9  1  0  0  0  0
  9 10  1  0  0  0  0
  9 11  1  0  0  0  0
  9 16  1  0  0  0  0
 11 12  1  0  0  0  0
 11 13  1  0  0  0  0
 11 14  1  0  0  0  0
 14 15  1  0  0  0  0
 16 17  2  0  0  0  0
 16 18  1  0  0  0  0
 18 19  1  0  0  0  0
 18 20  1  0  0  0  0
 20 21  1  0  0  0  0
 20 22  1  0  0  0  0
 20 23  1  0  0  0  0
M  END
$$$$

  -OEChem-01062216093D

 23 22  0     1  0  0  0  0  0999 V2000
   -2.6794   -3.6450    1.0165 H   0  0  0  0  0  0  0  0  0  0  0  0
   -2.5858   -2.6449    0.5840 C   0  0  0  0  0  0  0  0  0  0  0  0
   -3.4631   -2.0567    0.8630 H   0  0  0  0  0  0  0  0  0  0  0  0
   -2.5447   -2.7374   -0.5041 H   0  0  0  0  0  0  0  0  0  0  0  0
   -1.3240   -1.9726    1.0919 C   0  0  0  0  0  0  0  0  0  0  0  0
   -0.6880   -2.5090    1.9837 O   0  0  0  0  0  0  0  0  0  0  0  0
   -1.0317   -0.6906    0.6606 N   0  0  0  0  0  0  0  0  0  0  0  0
   -1.7144   -0.3670   -0.0185 H   0  0  0  0  0  0  0  0  0  0  0  0
    0.3270   -0.1260    0.4475 C   0  0  1  0  0  0  0  0  0  0  0  0
    0.4900    0.6059    1.2430 H   0  0  0  0  0  0  0  0  0  0  0  0
    1.4938   -1.1372    0.5773 C   0  0  0  0  0  0  0  0  0  0  0  0
    2.4357   -0.5866    0.4872 H   0  0  0  0  0  0  0  0  0  0  0  0
    1.5041   -1.6005    1.5669 H   0  0  0  0  0  0  0  0  0  0  0  0
    1.4658   -2.1393   -0.4477 O   0  0  0  0  0  0  0  0  0  0  0  0
    2.2033   -2.7627   -0.3397 H   0  0  0  0  0  0  0  0  0  0  0  0
    0.3937    0.6561   -0.8878 C   0  0  0  0  0  0  0  0  0  0  0  0
    0.9690    0.2769   -1.8978 O   0  0  0  0  0  0  0  0  0  0  0  0
   -0.2099    1.9023   -0.9281 N   0  0  0  0  0  0  0  0  0  0  0  0
   -0.6349    2.2455   -0.0717 H   0  0  0  0  0  0  0  0  0  0  0  0
   -0.1689    2.7791   -2.0934 C   0  0  0  0  0  0  0  0  0  0  0  0
   -0.6328    2.2914   -2.9573 H   0  0  0  0  0  0  0  0  0  0  0  0
   -0.7117    3.7068   -1.8885 H   0  0  0  0  0  0  0  0  0  0  0  0
    0.8661    3.0328   -2.3461 H   0  0  0  0  0  0  0  0  0  0  0  0
  1  2  1  0  0  0  0
  2  3  1  0  0  0  0
  2  4  1  0  0  0  0
  2  5  1  0  0  0  0
  5  6  2  0  0  0  0
  5  7  1  0  0  0  0
  7  8  1  0  0  0  0
  7  9  1  0  0  0  0
  9 10  1  0  0  0  0
  9 11  1  0  0  0  0
  9 16  1  0  0  0  0
 11 12  1  0  0  0  0
 11 13  1  0  0  0  0
 11 14  1  0  0  0  0
 14 15  1  0  0  0  0
 16 17  2  0  0  0  0
 16 18  1  0  0  0  0
 18 19  1  0  0  0  0
 18 20  1  0  0  0  0
 20 21  1  0  0  0  0
 20 22  1  0  0  0  0
 20 23  1  0  0  0  0
M  END
$$$$

  -OEChem-01062216093D

 23 22  0     1  0  0  0  0  0999 V2000
   -2.6744   -3.6294    0.9073 H   0  0  0  0  0  0  0  0  0  0  0  0
   -2.5810   -2.6112    0.5191 C   0  0  0  0  0  0  0  0  0  0  0  0
   -3.4619   -2.0374    0.8165 H   0  0  0  0  0  0  0  0  0  0  0  0
   -2.5321   -2.6561   -0.5718 H   0  0  0  0  0  0  0  0  0  0  0  0
   -1.3251   -1.9572    1.0640 C   0  0  0  0  0  0  0  0  0  0  0  0
   -0.7006   -2.5190    1.9490 O   0  0  0  0  0  0  0  0  0  0  0  0
   -1.0168   -0.6695    0.6655 N   0  0  0  0  0  0  0  0  0  0  0  0
   -1.6709   -0.3360   -0.0374 H   0  0  0  0  0  0  0  0  0  0  0  0
    0.3524   -0.1258    0.4887 C   0  0  1  0  0  0  0  0  0  0  0  0
    0.5052    0.5851    1.3046 H   0  0  0  0  0  0  0  0  0  0  0  0
    1.5226   -1.1323    0.6084 C   0  0  0  0  0  0  0  0  0  0  0  0
    2.4634   -0.5752    0.5519 H   0  0  0  0  0  0  0  0  0  0  0  0
    1.5134   -1.6213    1.5858 H   0  0  0  0  0  0  0  0  0  0  0  0
    1.5228   -2.1110   -0.4367 O   0  0  0  0  0  0  0  0  0  0  0  0
    2.2021   -2.7873   -0.2773 H   0  0  0  0  0  0  0  0  0  0  0  0
    0.4443    0.6796   -0.8282 C   0  0  0  0  0  0  0  0  0  0  0  0
    0.5068    0.1601   -1.9335 O   0  0  0  0  0  0  0  0  0  0  0  0
    0.1599    2.0345   -0.7834 N   0  0  0  0  0  0  0  0  0  0  0  0
    0.0213    2.4567    0.1299 H   0  0  0  0  0  0  0  0  0  0  0  0
    0.0629    2.8783   -1.9696 C   0  0  0  0  0  0  0  0  0  0  0  0
   -0.7572    2.5432   -2.6134 H   0  0  0  0  0  0  0  0  0  0  0  0
   -0.1269    3.9165   -1.6804 H   0  0  0  0  0  0  0  0  0  0  0  0
    0.9965    2.8446   -2.5414 H   0  0  0  0  0  0  0  0  0  0  0  0
  1  2  1  0  0  0  0
  2  3  1  0  0  0  0
  2  4  1  0  0  0  0
  2  5  1  0  0  0  0
  5  6  2  0  0  0  0
  5  7  1  0  0  0  0
  7  8  1  0  0  0  0
  7  9  1  0  0  0  0
  9 10  1  0  0  0  0
  9 11  1  0  0  0  0
  9 16  1  0  0  0  0
 11 12  1  0  0  0  0
 11 13  1  0  0  0  0
 11 14  1  0  0  0  0
 14 15  1  0  0  0  0
 16 17  2  0  0  0  0
 16 18  1  0  0  0  0
 18 19  1  0  0  0  0
 18 20  1  0  0  0  0
 20 21  1  0  0  0  0
 20 22  1  0  0  0  0
 20 23  1  0  0  0  0
M  END
$$$$

  -OEChem-01062216093D

 23 22  0     1  0  0  0  0  0999 V2000
   -2.6522   -3.6288    0.8558 H   0  0  0  0  0  0  0  0  0  0  0  0
   -2.5700   -2.6006    0.4928 C   0  0  0  0  0  0  0  0  0  0  0  0
   -3.4623   -2.0468    0.7936 H   0  0  0  0  0  0  0  0  0  0  0  0
   -2.5086   -2.6188   -0.5984 H   0  0  0  0  0  0  0  0  0  0  0  0
   -1.3308   -1.9415    1.0681 C   0  0  0  0  0  0  0  0  0  0  0  0
   -0.7168   -2.5055    1.9595 O   0  0  0  0  0  0  0  0  0  0  0  0
   -1.0149   -0.6547    0.6759 N   0  0  0  0  0  0  0  0  0  0  0  0
   -1.6370   -0.3337   -0.0627 H   0  0  0  0  0  0  0  0  0  0  0  0
    0.3602   -0.1212    0.5290 C   0  0  1  0  0  0  0  0  0  0  0  0
    0.5065    0.5794    1.3550 H   0  0  0  0  0  0  0  0  0  0  0  0
    1.5281   -1.1301    0.6229 C   0  0  0  0  0  0  0  0  0  0  0  0
    2.4711   -0.5749    0.5940 H   0  0  0  0  0  0  0  0  0  0  0  0
    1.5100   -1.6556    1.5809 H   0  0  0  0  0  0  0  0  0  0  0  0
    1.5282   -2.0677   -0.4583 O   0  0  0  0  0  0  0  0  0  0  0  0
    2.1588   -2.7883   -0.2909 H   0  0  0  0  0  0  0  0  0  0  0  0
    0.4709    0.6790   -0.7868 C   0  0  0  0  0  0  0  0  0  0  0  0
    0.1538    0.1850   -1.8617 O   0  0  0  0  0  0  0  0  0  0  0  0
    0.5074    2.0622   -0.7221 N   0  0  0  0  0  0  0  0  0  0  0  0
    0.6377    2.4889    0.1901 H   0  0  0  0  0  0  0  0  0  0  0  0
    0.3708    2.9274   -1.8888 C   0  0  0  0  0  0  0  0  0  0  0  0
   -0.6200    2.8094   -2.3401 H   0  0  0  0  0  0  0  0  0  0  0  0
    0.4966    3.9752   -1.5995 H   0  0  0  0  0  0  0  0  0  0  0  0
    1.1310    2.6830   -2.6384 H   0  0  0  0  0  0  0  0  0  0  0  0
  1  2  1  0  0  0  0
  2  3  1  0  0  0  0
  2  4  1  0  0  0  0
  2  5  1  0  0  0  0
  5  6  2  0  0  0  0
  5  7  1  0  0  0  0
  7  8  1  0  0  0  0
  7  9  1  0  0  0  0
  9 10  1  0  0  0  0
  9 11  1  0  0  0  0
  9 16  1  0  0  0  0
 11 12  1  0  0  0  0
 11 13  1  0  0  0  0
 11 14  1  0  0  0  0
 14 15  1  0  0  0  0
 16 17  2  0  0  0  0
 16 18  1  0  0  0  0
 18 19  1  0  0  0  0
 18 20  1  0  0  0  0
 20 21  1  0  0  0  0
 20 22  1  0  0  0  0
 20 23  1  0  0  0  0
M  END
$$$$

  -OEChem-01062216093D

 23 22  0     1  0  0  0  0  0999 V2000
   -2.6778   -3.6238    0.8787 H   0  0  0  0  0  0  0  0  0  0  0  0
   -2.5783   -2.6036    0.4974 C   0  0  0  0  0  0  0  0  0  0  0  0
   -3.4656   -2.0324    0.7801 H   0  0  0  0  0  0  0  0  0  0  0  0
   -2.5080   -2.6426   -0.5926 H   0  0  0  0  0  0  0  0  0  0  0  0
   -1.3352   -1.9498    1.0707 C   0  0  0  0  0  0  0  0  0  0  0  0
   -0.7159   -2.5214    1.9537 O   0  0  0  0  0  0  0  0  0  0  0  0
   -1.0168   -0.6633    0.6815 N   0  0  0  0  0  0  0  0  0  0  0  0
   -1.6256   -0.3442   -0.0703 H   0  0  0  0  0  0  0  0  0  0  0  0
    0.3563   -0.1206    0.5540 C   0  0  1  0  0  0  0  0  0  0  0  0
    0.4923    0.5754    1.3854 H   0  0  0  0  0  0  0  0  0  0  0  0
    1.5292   -1.1232    0.6261 C   0  0  0  0  0  0  0  0  0  0  0  0
    2.4706   -0.5641    0.6163 H   0  0  0  0  0  0  0  0  0  0  0  0
    1.5099   -1.6769    1.5679 H   0  0  0  0  0  0  0  0  0  0  0  0
    1.5307   -2.0271   -0.4837 O   0  0  0  0  0  0  0  0  0  0  0  0
    2.1434   -2.7657   -0.3262 H   0  0  0  0  0  0  0  0  0  0  0  0
    0.4776    0.6772   -0.7616 C   0  0  0  0  0  0  0  0  0  0  0  0
   -0.0740    0.2803   -1.7825 O   0  0  0  0  0  0  0  0  0  0  0  0
    0.8165    2.0191   -0.7082 N   0  0  0  0  0  0  0  0  0  0  0  0
    1.1584    2.3852    0.1751 H   0  0  0  0  0  0  0  0  0  0  0  0
    0.7221    2.9194   -1.8521 C   0  0  0  0  0  0  0  0  0  0  0  0
   -0.3222    3.0423   -2.1580 H   0  0  0  0  0  0  0  0  0  0  0  0
    1.1249    3.9033   -1.5932 H   0  0  0  0  0  0  0  0  0  0  0  0
    1.2935    2.5251   -2.6992 H   0  0  0  0  0  0  0  0  0  0  0  0
  1  2  1  0  0  0  0
  2  3  1  0  0  0  0
  2  4  1  0  0  0  0
  2  5  1  0  0  0  0
  5  6  2  0  0  0  0
  5  7  1  0  0  0  0
  7  8  1  0  0  0  0
  7  9  1  0  0  0  0
  9 10  1  0  0  0  0
  9 11  1  0  0  0  0
  9 16  1  0  0  0  0
 11 12  1  0  0  0  0
 11 13  1  0  0  0  0
 11 14  1  0  0  0  0
 14 15  1  0  0  0  0
 16 17  2  0  0  0  0
 16 18  1  0  0  0  0
 18 19  1  0  0  0  0
 18 20  1  0  0  0  0
 20 21  1  0  0  0  0
 20 22  1  0  0  0  0
 20 23  1  0  0  0  0
M  END
$$$$

  -OEChem-01062216093D

 23 22  0     1  0  0  0  0  0999 V2000
   -2.6812   -3.6400    0.8699 H   0  0  0  0  0  0  0  0  0  0  0  0
   -2.5929   -2.6095    0.5148 C   0  0  0  0  0  0  0  0  0  0  0  0
   -3.4721   -2.0473    0.8381 H   0  0  0  0  0  0  0  0  0  0  0  0
   -2.5537   -2.6172   -0.5774 H   0  0  0  0  0  0  0  0  0  0  0  0
   -1.3348   -1.9698    1.0706 C   0  0  0  0  0  0  0  0  0  0  0  0
   -0.6939   -2.5624    1.9241 O   0  0  0  0  0  0  0  0  0  0  0  0
   -1.0191   -0.6805    0.6884 N   0  0  0  0  0  0  0  0  0  0  0  0
   -1.6336   -0.3487   -0.0544 H   0  0  0  0  0  0  0  0  0  0  0  0
    0.3470   -0.1176    0.5710 C   0  0  1  0  0  0  0  0  0  0  0  0
    0.4735    0.5752    1.4068 H   0  0  0  0  0  0  0  0  0  0  0  0
    1.5287   -1.1093    0.6249 C   0  0  0  0  0  0  0  0  0  0  0  0
    2.4662   -0.5442    0.6258 H   0  0  0  0  0  0  0  0  0  0  0  0
    1.5145   -1.6823    1.5551 H   0  0  0  0  0  0  0  0  0  0  0  0
    1.5317   -1.9881   -0.5050 O   0  0  0  0  0  0  0  0  0  0  0  0
    2.1172   -2.7487   -0.3469 H   0  0  0  0  0  0  0  0  0  0  0  0
    0.4683    0.6860   -0.7412 C   0  0  0  0  0  0  0  0  0  0  0  0
   -0.2502    0.4170   -1.6995 O   0  0  0  0  0  0  0  0  0  0  0  0
    1.0818    1.9274   -0.7270 N   0  0  0  0  0  0  0  0  0  0  0  0
    1.6132    2.1815    0.1000 H   0  0  0  0  0  0  0  0  0  0  0  0
    1.0839    2.8342   -1.8694 C   0  0  0  0  0  0  0  0  0  0  0  0
    0.0638    3.1520   -2.1095 H   0  0  0  0  0  0  0  0  0  0  0  0
    1.6788    3.7245   -1.6442 H   0  0  0  0  0  0  0  0  0  0  0  0
    1.5164    2.3433   -2.7478 H   0  0  0  0  0  0  0  0  0  0  0  0
  1  2  1  0  0  0  0
  2  3  1  0  0  0  0
  2  4  1  0  0  0  0
  2  5  1  0  0  0  0
  5  6  2  0  0  0  0
  5  7  1  0  0  0  0
  7  8  1  0  0  0  0
  7  9  1  0  0  0  0
  9 10  1  0  0  0  0
  9 11  1  0  0  0  0
  9 16  1  0  0  0  0
 11 12  1  0  0  0  0
 11 13  1  0  0  0  0
 11 14  1  0  0  0  0
 14 15  1  0  0  0  0
 16 17  2  0  0  0  0
 16 18  1  0  0  0  0
 18 19  1  0  0  0  0
 18 20  1  0  0  0  0
 20 21  1  0  0  0  0
 20 22  1  0  0  0  0
 20 23  1  0  0  0  0
M  END
$$$$

  -OEChem-01062216093D

 23 22  0     1  0  0  0  0  0999 V2000
   -2.7585   -3.6737    0.9747 H   0  0  0  0  0  0  0  0  0  0  0  0
   -2.6596   -2.6406    0.6295 C   0  0  0  0  0  0  0  0  0  0  0  0
   -3.3647   -2.0167    1.1840 H   0  0  0  0  0  0  0  0  0  0  0  0
   -2.9056   -2.6000   -0.4346 H   0  0  0  0  0  0  0  0  0  0  0  0
   -1.2424   -2.1461    0.8519 C   0  0  0  0  0  0  0  0  0  0  0  0
   -0.4032   -2.9307    1.2610 O   0  0  0  0  0  0  0  0  0  0  0  0
   -0.9387   -0.8394    0.5194 N   0  0  0  0  0  0  0  0  0  0  0  0
   -1.6610   -0.3777   -0.0314 H   0  0  0  0  0  0  0  0  0  0  0  0
    0.3805   -0.1574    0.4886 C   0  0  1  0  0  0  0  0  0  0  0  0
    0.3523    0.5595    1.3135 H   0  0  0  0  0  0  0  0  0  0  0  0
    1.6445   -0.9997    0.7326 C   0  0  0  0  0  0  0  0  0  0  0  0
    2.5140   -0.3359    0.7707 H   0  0  0  0  0  0  0  0  0  0  0  0
    1.5908   -1.5071    1.7006 H   0  0  0  0  0  0  0  0  0  0  0  0
    1.8418   -1.9440   -0.3165 O   0  0  0  0  0  0  0  0  0  0  0  0
    1.1817   -2.6594   -0.2058 H   0  0  0  0  0  0  0  0  0  0  0  0
    0.5410    0.6817   -0.7963 C   0  0  0  0  0  0  0  0  0  0  0  0
   -0.2407    0.5256   -1.7295 O   0  0  0  0  0  0  0  0  0  0  0  0
    1.3243    1.8232   -0.7851 N   0  0  0  0  0  0  0  0  0  0  0  0
    1.9820    1.9293   -0.0187 H   0  0  0  0  0  0  0  0  0  0  0  0
    1.4388    2.7189   -1.9303 C   0  0  0  0  0  0  0  0  0  0  0  0
    0.4666    3.1628   -2.1695 H   0  0  0  0  0  0  0  0  0  0  0  0
    2.1413    3.5280   -1.7088 H   0  0  0  0  0  0  0  0  0  0  0  0
    1.8036    2.1747   -2.8079 H   0  0  0  0  0  0  0  0  0  0  0  0
  1  2  1  0  0  0  0
  2  3  1  0  0  0  0
  2  4  1  0  0  0  0
  2  5  1  0  0  0  0
  5  6  2  0  0  0  0
  5  7  1  0  0  0  0
  7  8  1  0  0  0  0
  7  9  1  0  0  0  0
  9 10  1  0  0  0  0
  9 11  1  0  0  0  0
  9 16  1  0  0  0  0
 11 12  1  0  0  0  0
 11 13  1  0  0  0  0
 11 14  1  0  0  0  0
 14 15  1  0  0  0  0
 16 17  2  0  0  0  0
 16 18  1  0  0  0  0
 18 19  1  0  0  0  0
 18 20  1  0  0  0  0
 20 21  1  0  0  0  0
 20 22  1  0  0  0  0
 20 23  1  0  0  0  0
M  END
$$$$

  -OEChem-01062216093D

 23 22  0     1  0  0  0  0  0999 V2000
   -2.7590   -3.6813    0.9387 H   0  0  0  0  0  0  0  0  0  0  0  0
   -2.6673   -2.6336    0.6381 C   0  0  0  0  0  0  0  0  0  0  0  0
   -3.3538   -2.0343    1.2409 H   0  0  0  0  0  0  0  0  0  0  0  0
   -2.9448   -2.5440   -0.4152 H   0  0  0  0  0  0  0  0  0  0  0  0
   -1.2429   -2.1524    0.8415 C   0  0  0  0  0  0  0  0  0  0  0  0
   -0.4023   -2.9487    1.2249 O   0  0  0  0  0  0  0  0  0  0  0  0
   -0.9341   -0.8445    0.5186 N   0  0  0  0  0  0  0  0  0  0  0  0
   -1.6631   -0.3635   -0.0073 H   0  0  0  0  0  0  0  0  0  0  0  0
    0.3823   -0.1563    0.4989 C   0  0  1  0  0  0  0  0  0  0  0  0
    0.3529    0.5593    1.3249 H   0  0  0  0  0  0  0  0  0  0  0  0
    1.6421   -1.0060    0.7433 C   0  0  0  0  0  0  0  0  0  0  0  0
    2.5164   -0.3498    0.7963 H   0  0  0  0  0  0  0  0  0  0  0  0
    1.5789   -1.5236    1.7056 H   0  0  0  0  0  0  0  0  0  0  0  0
    1.8375   -1.9403   -0.3152 O   0  0  0  0  0  0  0  0  0  0  0  0
    1.1780   -2.6573   -0.2061 H   0  0  0  0  0  0  0  0  0  0  0  0
    0.5422    0.6886   -0.7837 C   0  0  0  0  0  0  0  0  0  0  0  0
   -0.3562    0.6980   -1.6208 O   0  0  0  0  0  0  0  0  0  0  0  0
    1.5390    1.6449   -0.8760 N   0  0  0  0  0  0  0  0  0  0  0  0
    2.3083    1.5721   -0.2168 H   0  0  0  0  0  0  0  0  0  0  0  0
    1.7050    2.5055   -2.0415 C   0  0  0  0  0  0  0  0  0  0  0  0
    0.7973    3.0915   -2.2204 H   0  0  0  0  0  0  0  0  0  0  0  0
    2.5354    3.2002   -1.8829 H   0  0  0  0  0  0  0  0  0  0  0  0
    1.9189    1.9055   -2.9323 H   0  0  0  0  0  0  0  0  0  0  0  0
  1  2  1  0  0  0  0
  2  3  1  0  0  0  0
  2  4  1  0  0  0  0
  2  5  1  0  0  0  0
  5  6  2  0  0  0  0
  5  7  1  0  0  0  0
  7  8  1  0  0  0  0
  7  9  1  0  0  0  0
  9 10  1  0  0  0  0
  9 11  1  0  0  0  0
  9 16  1  0  0  0  0
 11 12  1  0  0  0  0
 11 13  1  0  0  0  0
 11 14  1  0  0  0  0
 14 15  1  0  0  0  0
 16 17  2  0  0  0  0
 16 18  1  0  0  0  0
 18 19  1  0  0  0  0
 18 20  1  0  0  0  0
 20 21  1  0  0  0  0
 20 22  1  0  0  0  0
 20 23  1  0  0  0  0
M  END
$$$$

  -OEChem-01062216093D

 23 22  0     1  0  0  0  0  0999 V2000
   -2.7578   -3.6290    0.8970 H   0  0  0  0  0  0  0  0  0  0  0  0
   -2.6562   -2.5915    0.5671 C   0  0  0  0  0  0  0  0  0  0  0  0
   -3.4624   -2.0002    1.0078 H   0  0  0  0  0  0  0  0  0  0  0  0
   -2.7422   -2.5586   -0.5218 H   0  0  0  0  0  0  0  0  0  0  0  0
   -1.3114   -2.0348    0.9953 C   0  0  0  0  0  0  0  0  0  0  0  0
   -0.5866   -2.7092    1.7090 O   0  0  0  0  0  0  0  0  0  0  0  0
   -0.9851   -0.7397    0.6475 N   0  0  0  0  0  0  0  0  0  0  0  0
   -1.6592   -0.2884    0.0279 H   0  0  0  0  0  0  0  0  0  0  0  0
    0.3614   -0.1258    0.5897 C   0  0  1  0  0  0  0  0  0  0  0  0
    0.5650    0.3375    1.5588 H   0  0  0  0  0  0  0  0  0  0  0  0
    1.5130   -1.1077    0.2733 C   0  0  0  0  0  0  0  0  0  0  0  0
    2.4697   -0.5829    0.3568 H   0  0  0  0  0  0  0  0  0  0  0  0
    1.5519   -1.9204    1.0010 H   0  0  0  0  0  0  0  0  0  0  0  0
    1.3929   -1.6357   -1.0527 O   0  0  0  0  0  0  0  0  0  0  0  0
    1.9712   -2.4103   -1.1667 H   0  0  0  0  0  0  0  0  0  0  0  0
    0.3746    0.9822   -0.4900 C   0  0  0  0  0  0  0  0  0  0  0  0
   -0.6745    1.3132   -1.0378 O   0  0  0  0  0  0  0  0  0  0  0  0
    1.5172    1.7198   -0.7516 N   0  0  0  0  0  0  0  0  0  0  0  0
    2.3871    1.3832   -0.3514 H   0  0  0  0  0  0  0  0  0  0  0  0
    1.5731    2.7645   -1.7671 C   0  0  0  0  0  0  0  0  0  0  0  0
    0.8667    3.5674   -1.5310 H   0  0  0  0  0  0  0  0  0  0  0  0
    2.5787    3.1933   -1.8134 H   0  0  0  0  0  0  0  0  0  0  0  0
    1.3253    2.3546   -2.7520 H   0  0  0  0  0  0  0  0  0  0  0  0
  1  2  1  0  0  0  0
  2  3  1  0  0  0  0
  2  4  1  0  0  0  0
  2  5  1  0  0  0  0
  5  6  2  0  0  0  0
  5  7  1  0  0  0  0
  7  8  1  0  0  0  0
  7  9  1  0  0  0  0
  9 10  1  0  0  0  0
  9 11  1  0  0  0  0
  9 16  1  0  0  0  0
 11 12  1  0  0  0  0
 11 13  1  0  0  0  0
 11 14  1  0  0  0  0
 14 15  1  0  0  0  0
 16 17  2  0  0  0  0
 16 18  1  0  0  0  0
 18 19  1  0  0  0  0
 18 20  1  0  0  0  0
 20 21  1  0  0  0  0
 20 22  1  0  0  0  0
 20 23  1  0  0  0  0
M  END
$$$$

  -OEChem-01062216093D

 23 22  0     1  0  0  0  0  0999 V2000
   -2.8043   -3.5999    0.8573 H   0  0  0  0  0  0  0  0  0  0  0  0
   -2.6865   -2.5533    0.5624 C   0  0  0  0  0  0  0  0  0  0  0  0
   -3.4504   -1.9563    1.0664 H   0  0  0  0  0  0  0  0  0  0  0  0
   -2.8269   -2.4752   -0.5184 H   0  0  0  0  0  0  0  0  0  0  0  0
   -1.3053   -2.0534    0.9424 C   0  0  0  0  0  0  0  0  0  0  0  0
   -0.5701   -2.7796    1.5909 O   0  0  0  0  0  0  0  0  0  0  0  0
   -0.9553   -0.7582    0.6164 N   0  0  0  0  0  0  0  0  0  0  0  0
   -1.6488   -0.2541    0.0631 H   0  0  0  0  0  0  0  0  0  0  0  0
    0.3912   -0.1405    0.5861 C   0  0  1  0  0  0  0  0  0  0  0  0
    0.5709    0.3267    1.5581 H   0  0  0  0  0  0  0  0  0  0  0  0
    1.5594   -1.1145    0.3097 C   0  0  0  0  0  0  0  0  0  0  0  0
    2.5100   -0.5830    0.4183 H   0  0  0  0  0  0  0  0  0  0  0  0
    1.5827   -1.9188    1.0473 H   0  0  0  0  0  0  0  0  0  0  0  0
    1.4805   -1.6564   -1.0137 O   0  0  0  0  0  0  0  0  0  0  0  0
    1.9935   -2.4820   -1.0743 H   0  0  0  0  0  0  0  0  0  0  0  0
    0.4050    0.9763   -0.4869 C   0  0  0  0  0  0  0  0  0  0  0  0
   -0.6603    1.4594   -0.8635 O   0  0  0  0  0  0  0  0  0  0  0  0
    1.5837    1.5259   -0.9631 N   0  0  0  0  0  0  0  0  0  0  0  0
    2.4299    0.9948   -0.7815 H   0  0  0  0  0  0  0  0  0  0  0  0
    1.6159    2.5342   -2.0155 C   0  0  0  0  0  0  0  0  0  0  0  0
    1.0481    3.4213   -1.7156 H   0  0  0  0  0  0  0  0  0  0  0  0
    2.6477    2.8389   -2.2146 H   0  0  0  0  0  0  0  0  0  0  0  0
    1.1859    2.1362   -2.9406 H   0  0  0  0  0  0  0  0  0  0  0  0
  1  2  1  0  0  0  0
  2  3  1  0  0  0  0
  2  4  1  0  0  0  0
  2  5  1  0  0  0  0
  5  6  2  0  0  0  0
  5  7  1  0  0  0  0
  7  8  1  0  0  0  0
  7  9  1  0  0  0  0
  9 10  1  0  0  0  0
  9 11  1  0  0  0  0
  9 16  1  0  0  0  0
 11 12  1  0  0  0  0
 11 13  1  0  0  0  0
 11 14  1  0  0  0  0
 14 15  1  0  0  0  0
 16 17  2  0  0  0  0
 16 18  1  0  0  0  0
 18 19  1  0  0  0  0
 18 20  1  0  0  0  0
 20 21  1  0  0  0  0
 20 22  1  0  0  0  0
 20 23  1  0  0  0  0
M  END
$$$$

  -OEChem-01062216093D

 23 22  0     1  0  0  0  0  0999 V2000
   -2.8146   -3.6193    0.9505 H   0  0  0  0  0  0  0  0  0  0  0  0
   -2.7001   -2.5761    0.6426 C   0  0  0  0  0  0  0  0  0  0  0  0
   -3.3109   -1.9488    1.2964 H   0  0  0  0  0  0  0  0  0  0  0  0
   -3.0542   -2.4717   -0.3859 H   0  0  0  0  0  0  0  0  0  0  0  0
   -1.2441   -2.1591    0.7345 C   0  0  0  0  0  0  0  0  0  0  0  0
   -0.4040   -2.9991    1.0055 O   0  0  0  0  0  0  0  0  0  0  0  0
   -0.9059   -0.8536    0.4377 N   0  0  0  0  0  0  0  0  0  0  0  0
   -1.6766   -0.2637    0.1231 H   0  0  0  0  0  0  0  0  0  0  0  0
    0.4092   -0.1692    0.4892 C   0  0  1  0  0  0  0  0  0  0  0  0
    0.4574    0.3403    1.4557 H   0  0  0  0  0  0  0  0  0  0  0  0
    1.6721   -1.0518    0.4277 C   0  0  0  0  0  0  0  0  0  0  0  0
    2.5552   -0.4218    0.5748 H   0  0  0  0  0  0  0  0  0  0  0  0
    1.6837   -1.7833    1.2403 H   0  0  0  0  0  0  0  0  0  0  0  0
    1.7786   -1.7027   -0.8380 O   0  0  0  0  0  0  0  0  0  0  0  0
    1.1412   -2.4443   -0.8552 H   0  0  0  0  0  0  0  0  0  0  0  0
    0.4440    0.9459   -0.5806 C   0  0  0  0  0  0  0  0  0  0  0  0
   -0.5963    1.5455   -0.8365 O   0  0  0  0  0  0  0  0  0  0  0  0
    1.6160    1.3387   -1.2019 N   0  0  0  0  0  0  0  0  0  0  0  0
    2.3817    0.6690   -1.1454 H   0  0  0  0  0  0  0  0  0  0  0  0
    1.6480    2.3286   -2.2714 C   0  0  0  0  0  0  0  0  0  0  0  0
    1.2441    3.2847   -1.9222 H   0  0  0  0  0  0  0  0  0  0  0  0
    2.6781    2.4922   -2.6022 H   0  0  0  0  0  0  0  0  0  0  0  0
    1.0572    1.9876   -3.1281 H   0  0  0  0  0  0  0  0  0  0  0  0
  1  2  1  0  0  0  0
  2  3  1  0  0  0  0
  2  4  1  0  0  0  0
  2  5  1  0  0  0  0
  5  6  2  0  0  0  0
  5  7  1  0  0  0  0
  7  8  1  0  0  0  0
  7  9  1  0  0  0  0
  9 10  1  0  0  0  0
  9 11  1  0  0  0  0
  9 16  1  0  0  0  0
 11 12  1  0  0  0  0
 11 13  1  0  0  0  0
 11 14  1  0  0  0  0
 14 15  1  0  0  0  0
 16 17  2  0  0  0  0
 16 18  1  0  0  0  0
 18 19  1  0  0  0  0
 18 20  1  0  0  0  0
 20 21  1  0  0  0  0
 20 22  1  0  0  0  0
 20 23  1  0  0  0  0
M  END
$$$$

  -OEChem-01062216093D

 23 22  0     1  0  0  0  0  0999 V2000
   -2.8130   -3.6163    0.9603 H   0  0  0  0  0  0  0  0  0  0  0  0
   -2.7042   -2.5669    0.6720 C   0  0  0  0  0  0  0  0  0  0  0  0
   -3.2744   -1.9507    1.3715 H   0  0  0  0  0  0  0  0  0  0  0  0
   -3.1093   -2.4345   -0.3342 H   0  0  0  0  0  0  0  0  0  0  0  0
   -1.2414   -2.1645    0.6989 C   0  0  0  0  0  0  0  0  0  0  0  0
   -0.3959   -3.0183    0.9036 O   0  0  0  0  0  0  0  0  0  0  0  0
   -0.9054   -0.8569    0.4077 N   0  0  0  0  0  0  0  0  0  0  0  0
   -1.6882   -0.2511    0.1632 H   0  0  0  0  0  0  0  0  0  0  0  0
    0.4098   -0.1736    0.4664 C   0  0  1  0  0  0  0  0  0  0  0  0
    0.4477    0.3374    1.4325 H   0  0  0  0  0  0  0  0  0  0  0  0
    1.6735   -1.0565    0.4311 C   0  0  0  0  0  0  0  0  0  0  0  0
    2.5526   -0.4203    0.5781 H   0  0  0  0  0  0  0  0  0  0  0  0
    1.6751   -1.7762    1.2547 H   0  0  0  0  0  0  0  0  0  0  0  0
    1.7978   -1.7260   -0.8246 O   0  0  0  0  0  0  0  0  0  0  0  0
    1.1647   -2.4729   -0.8318 H   0  0  0  0  0  0  0  0  0  0  0  0
    0.4548    0.9455   -0.5961 C   0  0  0  0  0  0  0  0  0  0  0  0
   -0.5220    1.6785   -0.7115 O   0  0  0  0  0  0  0  0  0  0  0  0
    1.5470    1.1383   -1.4216 N   0  0  0  0  0  0  0  0  0  0  0  0
    2.2047    0.3580   -1.4539 H   0  0  0  0  0  0  0  0  0  0  0  0
    1.5540    2.0976   -2.5185 C   0  0  0  0  0  0  0  0  0  0  0  0
    1.3502    3.1074   -2.1468 H   0  0  0  0  0  0  0  0  0  0  0  0
    2.5326    2.1035   -3.0081 H   0  0  0  0  0  0  0  0  0  0  0  0
    0.7941    1.8351   -3.2618 H   0  0  0  0  0  0  0  0  0  0  0  0
  1  2  1  0  0  0  0
  2  3  1  0  0  0  0
  2  4  1  0  0  0  0
  2  5  1  0  0  0  0
  5  6  2  0  0  0  0
  5  7  1  0  0  0  0
  7  8  1  0  0  0  0
  7  9  1  0  0  0  0
  9 10  1  0  0  0  0
  9 11  1  0  0  0  0
  9 16  1  0  0  0  0
 11 12  1  0  0  0  0
 11 13  1  0  0  0  0
 11 14  1  0  0  0  0
 14 15  1  0  0  0  0
 16 17  2  0  0  0  0
 16 18  1  0  0  0  0
 18 19  1  0  0  0  0
 18 20  1  0  0  0  0
 20 21  1  0  0  0  0
 20 22  1  0  0  0  0
 20 23  1  0  0  0  0
M  END
$$$$

  -OEChem-01062216093D

 23 22  0     1  0  0  0  0  0999 V2000
   -2.8075   -3.6137    0.9878 H   0  0  0  0  0  0  0  0  0  0  0  0
   -2.7049   -2.5633    0.7005 C   0  0  0  0  0  0  0  0  0  0  0  0
   -3.2445   -1.9480    1.4246 H   0  0  0  0  0  0  0  0  0  0  0  0
   -3.1484   -2.4239   -0.2884 H   0  0  0  0  0  0  0  0  0  0  0  0
   -1.2402   -2.1683    0.6725 C   0  0  0  0  0  0  0  0  0  0  0  0
   -0.3917   -3.0310    0.8224 O   0  0  0  0  0  0  0  0  0  0  0  0
   -0.9088   -0.8592    0.3811 N   0  0  0  0  0  0  0  0  0  0  0  0
   -1.7003   -0.2455    0.1928 H   0  0  0  0  0  0  0  0  0  0  0  0
    0.4058   -0.1745    0.4412 C   0  0  1  0  0  0  0  0  0  0  0  0
    0.4359    0.3396    1.4063 H   0  0  0  0  0  0  0  0  0  0  0  0
    1.6676   -1.0620    0.4300 C   0  0  0  0  0  0  0  0  0  0  0  0
    2.5459   -0.4228    0.5691 H   0  0  0  0  0  0  0  0  0  0  0  0
    1.6616   -1.7665    1.2670 H   0  0  0  0  0  0  0  0  0  0  0  0
    1.8033   -1.7542   -0.8133 O   0  0  0  0  0  0  0  0  0  0  0  0
    1.1765   -2.5076   -0.8032 H   0  0  0  0  0  0  0  0  0  0  0  0
    0.4628    0.9464   -0.6166 C   0  0  0  0  0  0  0  0  0  0  0  0
   -0.4171    1.7998   -0.6059 O   0  0  0  0  0  0  0  0  0  0  0  0
    1.4058    0.9595   -1.6263 N   0  0  0  0  0  0  0  0  0  0  0  0
    1.9734    0.1128   -1.7028 H   0  0  0  0  0  0  0  0  0  0  0  0
    1.3769    1.8941   -2.7434 C   0  0  0  0  0  0  0  0  0  0  0  0
    1.3904    2.9270   -2.3800 H   0  0  0  0  0  0  0  0  0  0  0  0
    2.2518    1.7438   -3.3832 H   0  0  0  0  0  0  0  0  0  0  0  0
    0.4749    1.7438   -3.3456 H   0  0  0  0  0  0  0  0  0  0  0  0
  1  2  1  0  0  0  0
  2  3  1  0  0  0  0
  2  4  1  0  0  0  0
  2  5  1  0  0  0  0
  5  6  2  0  0  0  0
  5  7  1  0  0  0  0
  7  8  1  0  0  0  0
  7  9  1  0  0  0  0
  9 10  1  0  0  0  0
  9 11  1  0  0  0  0
  9 16  1  0  0  0  0
 11 12  1  0  0  0  0
 11 13  1  0  0  0  0
 11 14  1  0  0  0  0
 14 15  1  0  0  0  0
 16 17  2  0  0  0  0
 16 18  1  0  0  0  0
 18 19  1  0  0  0  0
 18 20  1  0  0  0  0
 20 21  1  0  0  0  0
 20 22  1  0  0  0  0
 20 23  1  0  0  0  0
M  END
$$$$

  -OEChem-01062216093D

 23 22  0     1  0  0  0  0  0999 V2000
   -2.7971   -3.6199    1.0394 H   0  0  0  0  0  0  0  0  0  0  0  0
   -2.7052   -2.5721    0.7390 C   0  0  0  0  0  0  0  0  0  0  0  0
   -3.2260   -1.9511    1.4721 H   0  0  0  0  0  0  0  0  0  0  0  0
   -3.1767   -2.4431   -0.2384 H   0  0  0  0  0  0  0  0  0  0  0  0
   -1.2426   -2.1748    0.6654 C   0  0  0  0  0  0  0  0  0  0  0  0
   -0.3895   -3.0378    0.7849 O   0  0  0  0  0  0  0  0  0  0  0  0
   -0.9221   -0.8654    0.3607 N   0  0  0  0  0  0  0  0  0  0  0  0
   -1.7225   -0.2527    0.2149 H   0  0  0  0  0  0  0  0  0  0  0  0
    0.3897   -0.1740    0.4121 C   0  0  1  0  0  0  0  0  0  0  0  0
    0.4166    0.3466    1.3740 H   0  0  0  0  0  0  0  0  0  0  0  0
    1.6527   -1.0595    0.4158 C   0  0  0  0  0  0  0  0  0  0  0  0
    2.5278   -0.4136    0.5430 H   0  0  0  0  0  0  0  0  0  0  0  0
    1.6478   -1.7492    1.2652 H   0  0  0  0  0  0  0  0  0  0  0  0
    1.7952   -1.7738   -0.8149 O   0  0  0  0  0  0  0  0  0  0  0  0
    1.1772   -2.5346   -0.7862 H   0  0  0  0  0  0  0  0  0  0  0  0
    0.4547    0.9405   -0.6504 C   0  0  0  0  0  0  0  0  0  0  0  0
   -0.2863    1.9079   -0.5249 O   0  0  0  0  0  0  0  0  0  0  0  0
    1.1866    0.8003   -1.8130 N   0  0  0  0  0  0  0  0  0  0  0  0
    1.6904   -0.0832   -1.9174 H   0  0  0  0  0  0  0  0  0  0  0  0
    1.1445    1.7391   -2.9256 C   0  0  0  0  0  0  0  0  0  0  0  0
    1.4125    2.7460   -2.5887 H   0  0  0  0  0  0  0  0  0  0  0  0
    1.8542    1.4353   -3.7011 H   0  0  0  0  0  0  0  0  0  0  0  0
    0.1417    1.7683   -3.3641 H   0  0  0  0  0  0  0  0  0  0  0  0
  1  2  1  0  0  0  0
  2  3  1  0  0  0  0
  2  4  1  0  0  0  0
  2  5  1  0  0  0  0
  5  6  2  0  0  0  0
  5  7  1  0  0  0  0
  7  8  1  0  0  0  0
  7  9  1  0  0  0  0
  9 10  1  0  0  0  0
  9 11  1  0  0  0  0
  9 16  1  0  0  0  0
 11 12  1  0  0  0  0
 11 13  1  0  0  0  0
 11 14  1  0  0  0  0
 14 15  1  0  0  0  0
 16 17  2  0  0  0  0
 16 18  1  0  0  0  0
 18 19  1  0  0  0  0
 18 20  1  0  0  0  0
 20 21  1  0  0  0  0
 20 22  1  0  0  0  0
 20 23  1  0  0  0  0
M  END
$$$$

  -OEChem-01062216093D

 23 22  0     1  0  0  0  0  0999 V2000
   -2.7713   -3.6500    1.1161 H   0  0  0  0  0  0  0  0  0  0  0  0
   -2.7000   -2.6065    0.7963 C   0  0  0  0  0  0  0  0  0  0  0  0
   -3.2127   -1.9802    1.5304 H   0  0  0  0  0  0  0  0  0  0  0  0
   -3.1943   -2.5009   -0.1726 H   0  0  0  0  0  0  0  0  0  0  0  0
   -1.2449   -2.1911    0.6835 C   0  0  0  0  0  0  0  0  0  0  0  0
   -0.3777   -3.0416    0.7909 O   0  0  0  0  0  0  0  0  0  0  0  0
   -0.9507   -0.8820    0.3517 N   0  0  0  0  0  0  0  0  0  0  0  0
   -1.7649   -0.2834    0.2299 H   0  0  0  0  0  0  0  0  0  0  0  0
    0.3512   -0.1696    0.3790 C   0  0  1  0  0  0  0  0  0  0  0  0
    0.3804    0.3637    1.3344 H   0  0  0  0  0  0  0  0  0  0  0  0
    1.6262   -1.0358    0.3805 C   0  0  0  0  0  0  0  0  0  0  0  0
    2.4920   -0.3739    0.4865 H   0  0  0  0  0  0  0  0  0  0  0  0
    1.6425   -1.7120    1.2404 H   0  0  0  0  0  0  0  0  0  0  0  0
    1.7654   -1.7654   -0.8419 O   0  0  0  0  0  0  0  0  0  0  0  0
    1.1726   -2.5447   -0.7858 H   0  0  0  0  0  0  0  0  0  0  0  0
    0.4005    0.9280   -0.6999 C   0  0  0  0  0  0  0  0  0  0  0  0
   -0.1475    1.9992   -0.4736 O   0  0  0  0  0  0  0  0  0  0  0  0
    0.8655    0.6665   -1.9731 N   0  0  0  0  0  0  0  0  0  0  0  0
    1.3370   -0.2319   -2.0966 H   0  0  0  0  0  0  0  0  0  0  0  0
    0.8932    1.6469   -3.0496 C   0  0  0  0  0  0  0  0  0  0  0  0
    1.5075    2.5083   -2.7672 H   0  0  0  0  0  0  0  0  0  0  0  0
    1.3168    1.2007   -3.9545 H   0  0  0  0  0  0  0  0  0  0  0  0
   -0.1198    1.9945   -3.2780 H   0  0  0  0  0  0  0  0  0  0  0  0
  1  2  1  0  0  0  0
  2  3  1  0  0  0  0
  2  4  1  0  0  0  0
  2  5  1  0  0  0  0
  5  6  2  0  0  0  0
  5  7  1  0  0  0  0
  7  8  1  0  0  0  0
  7  9  1  0  0  0  0
  9 10  1  0  0  0  0
  9 11  1  0  0  0  0
  9 16  1  0  0  0  0
 11 12  1  0  0  0  0
 11 13  1  0  0  0  0
 11 14  1  0  0  0  0
 14 15  1  0  0  0  0
 16 17  2  0  0  0  0
 16 18  1  0  0  0  0
 18 19  1  0  0  0  0
 18 20  1  0  0  0  0
 20 21  1  0  0  0  0
 20 22  1  0  0  0  0
 20 23  1  0  0  0  0
M  END
$$$$

  -OEChem-01062216093D

 23 22  0     1  0  0  0  0  0999 V2000
   -2.8304   -3.6106    1.0188 H   0  0  0  0  0  0  0  0  0  0  0  0
   -2.7293   -2.5733    0.6872 C   0  0  0  0  0  0  0  0  0  0  0  0
   -3.4200   -1.9518    1.2622 H   0  0  0  0  0  0  0  0  0  0  0  0
   -2.9923   -2.5169   -0.3719 H   0  0  0  0  0  0  0  0  0  0  0  0
   -1.3046   -2.0933    0.8935 C   0  0  0  0  0  0  0  0  0  0  0  0
   -0.5081   -2.8401    1.4351 O   0  0  0  0  0  0  0  0  0  0  0  0
   -0.9827   -0.8031    0.5133 N   0  0  0  0  0  0  0  0  0  0  0  0
   -1.7519   -0.2758    0.1086 H   0  0  0  0  0  0  0  0  0  0  0  0
    0.3472   -0.1476    0.4511 C   0  0  1  0  0  0  0  0  0  0  0  0
    0.4935    0.3714    1.4034 H   0  0  0  0  0  0  0  0  0  0  0  0
    1.5631   -1.0881    0.2746 C   0  0  0  0  0  0  0  0  0  0  0  0
    2.4765   -0.4879    0.3424 H   0  0  0  0  0  0  0  0  0  0  0  0
    1.6165   -1.8120    1.0906 H   0  0  0  0  0  0  0  0  0  0  0  0
    1.5656   -1.7632   -0.9940 O   0  0  0  0  0  0  0  0  0  0  0  0
    2.1514   -2.5413   -0.9516 H   0  0  0  0  0  0  0  0  0  0  0  0
    0.3613    0.9258   -0.6552 C   0  0  0  0  0  0  0  0  0  0  0  0
    0.1635    2.0956   -0.3551 O   0  0  0  0  0  0  0  0  0  0  0  0
    0.4267    0.5814   -1.9909 N   0  0  0  0  0  0  0  0  0  0  0  0
    0.7062   -0.3849   -2.1703 H   0  0  0  0  0  0  0  0  0  0  0  0
    0.4813    1.5523   -3.0756 C   0  0  0  0  0  0  0  0  0  0  0  0
    1.3747    2.1787   -2.9845 H   0  0  0  0  0  0  0  0  0  0  0  0
    0.5144    1.0375   -4.0407 H   0  0  0  0  0  0  0  0  0  0  0  0
   -0.4043    2.1962   -3.0594 H   0  0  0  0  0  0  0  0  0  0  0  0
  1  2  1  0  0  0  0
  2  3  1  0  0  0  0
  2  4  1  0  0  0  0
  2  5  1  0  0  0  0
  5  6  2  0  0  0  0
  5  7  1  0  0  0  0
  7  8  1  0  0  0  0
  7  9  1  0  0  0  0
  9 10  1  0  0  0  0
  9 11  1  0  0  0  0
  9 16  1  0  0  0  0
 11 12  1  0  0  0  0
 11 13  1  0  0  0  0
 11 14  1  0  0  0  0
 14 15  1  0  0  0  0
 16 17  2  0  0  0  0
 16 18  1  0  0  0  0
 18 19  1  0  0  0  0
 18 20  1  0  0  0  0
 20 21  1  0  0  0  0
 20 22  1  0  0  0  0
 20 23  1  0  0  0  0
M  END
$$$$

  -OEChem-01062216093D

 23 22  0     1  0  0  0  0  0999 V2000
   -2.8075   -3.6301    1.0285 H   0  0  0  0  0  0  0  0  0  0  0  0
   -2.7228   -2.5909    0.6978 C   0  0  0  0  0  0  0  0  0  0  0  0
   -3.4348   -1.9832    1.2614 H   0  0  0  0  0  0  0  0  0  0  0  0
   -2.9703   -2.5404   -0.3652 H   0  0  0  0  0  0  0  0  0  0  0  0
   -1.3118   -2.0821    0.9273 C   0  0  0  0  0  0  0  0  0  0  0  0
   -0.5178   -2.8005    1.5090 O   0  0  0  0  0  0  0  0  0  0  0  0
   -1.0024   -0.7924    0.5361 N   0  0  0  0  0  0  0  0  0  0  0  0
   -1.7662   -0.2916    0.0900 H   0  0  0  0  0  0  0  0  0  0  0  0
    0.3262   -0.1333    0.4658 C   0  0  1  0  0  0  0  0  0  0  0  0
    0.4900    0.3777    1.4195 H   0  0  0  0  0  0  0  0  0  0  0  0
    1.5319   -1.0735    0.2406 C   0  0  0  0  0  0  0  0  0  0  0  0
    2.4496   -0.4791    0.3028 H   0  0  0  0  0  0  0  0  0  0  0  0
    1.6019   -1.8218    1.0326 H   0  0  0  0  0  0  0  0  0  0  0  0
    1.4941   -1.7083   -1.0481 O   0  0  0  0  0  0  0  0  0  0  0  0
    2.1515   -2.4270   -1.0815 H   0  0  0  0  0  0  0  0  0  0  0  0
    0.3413    0.9339   -0.6446 C   0  0  0  0  0  0  0  0  0  0  0  0
    0.4287    2.1174   -0.3467 O   0  0  0  0  0  0  0  0  0  0  0  0
    0.0979    0.5823   -1.9584 N   0  0  0  0  0  0  0  0  0  0  0  0
    0.2468   -0.4079   -2.1575 H   0  0  0  0  0  0  0  0  0  0  0  0
    0.1603    1.5346   -3.0593 C   0  0  0  0  0  0  0  0  0  0  0  0
    1.1680    1.9540   -3.1470 H   0  0  0  0  0  0  0  0  0  0  0  0
   -0.0941    1.0391   -4.0011 H   0  0  0  0  0  0  0  0  0  0  0  0
   -0.5493    2.3531   -2.8994 H   0  0  0  0  0  0  0  0  0  0  0  0
  1  2  1  0  0  0  0
  2  3  1  0  0  0  0
  2  4  1  0  0  0  0
  2  5  1  0  0  0  0
  5  6  2  0  0  0  0
  5  7  1  0  0  0  0
  7  8  1  0  0  0  0
  7  9  1  0  0  0  0
  9 10  1  0  0  0  0
  9 11  1  0  0  0  0
  9 16  1  0  0  0  0
 11 12  1  0  0  0  0
 11 13  1  0  0  0  0
 11 14  1  0  0  0  0
 14 15  1  0  0  0  0
 16 17  2  0  0  0  0
 16 18  1  0  0  0  0
 18 19  1  0  0  0  0
 18 20  1  0  0  0  0
 20 21  1  0  0  0  0
 20 22  1  0  0  0  0
 20 23  1  0  0  0  0
M  END
$$$$

  -OEChem-01062216093D

 23 22  0     1  0  0  0  0  0999 V2000
   -2.7949   -3.6428    1.0543 H   0  0  0  0  0  0  0  0  0  0  0  0
   -2.7177   -2.6073    0.7104 C   0  0  0  0  0  0  0  0  0  0  0  0
   -3.4457   -2.0011    1.2550 H   0  0  0  0  0  0  0  0  0  0  0  0
   -2.9498   -2.5745   -0.3568 H   0  0  0  0  0  0  0  0  0  0  0  0
   -1.3161   -2.0785    0.9535 C   0  0  0  0  0  0  0  0  0  0  0  0
   -0.5207   -2.7793    1.5540 O   0  0  0  0  0  0  0  0  0  0  0  0
   -1.0170   -0.7887    0.5544 N   0  0  0  0  0  0  0  0  0  0  0  0
   -1.7817   -0.3000    0.0971 H   0  0  0  0  0  0  0  0  0  0  0  0
    0.3084   -0.1215    0.4819 C   0  0  1  0  0  0  0  0  0  0  0  0
    0.4842    0.3828    1.4372 H   0  0  0  0  0  0  0  0  0  0  0  0
    1.5055   -1.0594    0.2154 C   0  0  0  0  0  0  0  0  0  0  0  0
    2.4274   -0.4708    0.2743 H   0  0  0  0  0  0  0  0  0  0  0  0
    1.5882   -1.8307    0.9836 H   0  0  0  0  0  0  0  0  0  0  0  0
    1.4309   -1.6537   -1.0907 O   0  0  0  0  0  0  0  0  0  0  0  0
    2.1195   -2.3368   -1.1835 H   0  0  0  0  0  0  0  0  0  0  0  0
    0.3294    0.9412   -0.6314 C   0  0  0  0  0  0  0  0  0  0  0  0
    0.6904    2.0826   -0.3781 O   0  0  0  0  0  0  0  0  0  0  0  0
   -0.2004    0.6514   -1.8755 N   0  0  0  0  0  0  0  0  0  0  0  0
   -0.2208   -0.3448   -2.0901 H   0  0  0  0  0  0  0  0  0  0  0  0
   -0.1438    1.5930   -2.9865 C   0  0  0  0  0  0  0  0  0  0  0  0
    0.8962    1.8061   -3.2551 H   0  0  0  0  0  0  0  0  0  0  0  0
   -0.6514    1.1752   -3.8612 H   0  0  0  0  0  0  0  0  0  0  0  0
   -0.6384    2.5332   -2.7198 H   0  0  0  0  0  0  0  0  0  0  0  0
  1  2  1  0  0  0  0
  2  3  1  0  0  0  0
  2  4  1  0  0  0  0
  2  5  1  0  0  0  0
  5  6  2  0  0  0  0
  5  7  1  0  0  0  0
  7  8  1  0  0  0  0
  7  9  1  0  0  0  0
  9 10  1  0  0  0  0
  9 11  1  0  0  0  0
  9 16  1  0  0  0  0
 11 12  1  0  0  0  0
 11 13  1  0  0  0  0
 11 14  1  0  0  0  0
 14 15  1  0  0  0  0
 16 17  2  0  0  0  0
 16 18  1  0  0  0  0
 18 19  1  0  0  0  0
 18 20  1  0  0  0  0
 20 21  1  0  0  0  0
 20 22  1  0  0  0  0
 20 23  1  0  0  0  0
M  END
$$$$

  -OEChem-01062216093D

 23 22  0     1  0  0  0  0  0999 V2000
   -2.7876   -3.6597    1.0634 H   0  0  0  0  0  0  0  0  0  0  0  0
   -2.7217   -2.6184    0.7350 C   0  0  0  0  0  0  0  0  0  0  0  0
   -3.4434   -2.0246    1.3013 H   0  0  0  0  0  0  0  0  0  0  0  0
   -2.9717   -2.5704   -0.3275 H   0  0  0  0  0  0  0  0  0  0  0  0
   -1.3191   -2.0862    0.9638 C   0  0  0  0  0  0  0  0  0  0  0  0
   -0.5183   -2.7819    1.5627 O   0  0  0  0  0  0  0  0  0  0  0  0
   -1.0270   -0.7965    0.5592 N   0  0  0  0  0  0  0  0  0  0  0  0
   -1.8030   -0.2995    0.1311 H   0  0  0  0  0  0  0  0  0  0  0  0
    0.2942   -0.1180    0.4889 C   0  0  1  0  0  0  0  0  0  0  0  0
    0.4720    0.3827    1.4455 H   0  0  0  0  0  0  0  0  0  0  0  0
    1.4889   -1.0513    0.2025 C   0  0  0  0  0  0  0  0  0  0  0  0
    2.4121   -0.4648    0.2605 H   0  0  0  0  0  0  0  0  0  0  0  0
    1.5795   -1.8349    0.9571 H   0  0  0  0  0  0  0  0  0  0  0  0
    1.3940   -1.6208   -1.1130 O   0  0  0  0  0  0  0  0  0  0  0  0
    2.1035   -2.2749   -1.2440 H   0  0  0  0  0  0  0  0  0  0  0  0
    0.3273    0.9426   -0.6270 C   0  0  0  0  0  0  0  0  0  0  0  0
    0.9215    1.9975   -0.4473 O   0  0  0  0  0  0  0  0  0  0  0  0
   -0.4465    0.7779   -1.7628 N   0  0  0  0  0  0  0  0  0  0  0  0
   -0.6660   -0.1926   -1.9754 H   0  0  0  0  0  0  0  0  0  0  0  0
   -0.4117    1.7268   -2.8688 C   0  0  0  0  0  0  0  0  0  0  0  0
    0.5962    1.7845   -3.2929 H   0  0  0  0  0  0  0  0  0  0  0  0
   -1.1035    1.4138   -3.6566 H   0  0  0  0  0  0  0  0  0  0  0  0
   -0.7081    2.7247   -2.5285 H   0  0  0  0  0  0  0  0  0  0  0  0
  1  2  1  0  0  0  0
  2  3  1  0  0  0  0
  2  4  1  0  0  0  0
  2  5  1  0  0  0  0
  5  6  2  0  0  0  0
  5  7  1  0  0  0  0
  7  8  1  0  0  0  0
  7  9  1  0  0  0  0
  9 10  1  0  0  0  0
  9 11  1  0  0  0  0
  9 16  1  0  0  0  0
 11 12  1  0  0  0  0
 11 13  1  0  0  0  0
 11 14  1  0  0  0  0
 14 15  1  0  0  0  0
 16 17  2  0  0  0  0
 16 18  1  0  0  0  0
 18 19  1  0  0  0  0
 18 20  1  0  0  0  0
 20 21  1  0  0  0  0
 20 22  1  0  0  0  0
 20 23  1  0  0  0  0
M  END
$$$$

  -OEChem-01062216093D

 23 22  0     1  0  0  0  0  0999 V2000
   -2.7833   -3.6758    1.0868 H   0  0  0  0  0  0  0  0  0  0  0  0
   -2.7239   -2.6330    0.7622 C   0  0  0  0  0  0  0  0  0  0  0  0
   -3.4350   -2.0426    1.3450 H   0  0  0  0  0  0  0  0  0  0  0  0
   -2.9939   -2.5804   -0.2952 H   0  0  0  0  0  0  0  0  0  0  0  0
   -1.3170   -2.1020    0.9661 C   0  0  0  0  0  0  0  0  0  0  0  0
   -0.5088   -2.7993    1.5525 O   0  0  0  0  0  0  0  0  0  0  0  0
   -1.0325   -0.8116    0.5562 N   0  0  0  0  0  0  0  0  0  0  0  0
   -1.8253   -0.3002    0.1806 H   0  0  0  0  0  0  0  0  0  0  0  0
    0.2828   -0.1191    0.4846 C   0  0  1  0  0  0  0  0  0  0  0  0
    0.4583    0.3840    1.4402 H   0  0  0  0  0  0  0  0  0  0  0  0
    1.4807   -1.0484    0.1981 C   0  0  0  0  0  0  0  0  0  0  0  0
    2.4033   -0.4605    0.2530 H   0  0  0  0  0  0  0  0  0  0  0  0
    1.5759   -1.8312    0.9526 H   0  0  0  0  0  0  0  0  0  0  0  0
    1.3807   -1.6171   -1.1169 O   0  0  0  0  0  0  0  0  0  0  0  0
    2.0990   -2.2590   -1.2578 H   0  0  0  0  0  0  0  0  0  0  0  0
    0.3239    0.9415   -0.6337 C   0  0  0  0  0  0  0  0  0  0  0  0
    1.1001    1.8844   -0.5463 O   0  0  0  0  0  0  0  0  0  0  0  0
   -0.6429    0.9519   -1.6257 N   0  0  0  0  0  0  0  0  0  0  0  0
   -1.0573    0.0441   -1.8160 H   0  0  0  0  0  0  0  0  0  0  0  0
   -0.6297    1.9310   -2.7061 C   0  0  0  0  0  0  0  0  0  0  0  0
    0.2914    1.8428   -3.2920 H   0  0  0  0  0  0  0  0  0  0  0  0
   -1.4829    1.7704   -3.3721 H   0  0  0  0  0  0  0  0  0  0  0  0
   -0.6952    2.9479   -2.3046 H   0  0  0  0  0  0  0  0  0  0  0  0
  1  2  1  0  0  0  0
  2  3  1  0  0  0  0
  2  4  1  0  0  0  0
  2  5  1  0  0  0  0
  5  6  2  0  0  0  0
  5  7  1  0  0  0  0
  7  8  1  0  0  0  0
  7  9  1  0  0  0  0
  9 10  1  0  0  0  0
  9 11  1  0  0  0  0
  9 16  1  0  0  0  0
 11 12  1  0  0  0  0
 11 13  1  0  0  0  0
 11 14  1  0  0  0  0
 14 15  1  0  0  0  0
 16 17  2  0  0  0  0
 16 18  1  0  0  0  0
 18 19  1  0  0  0  0
 18 20  1  0  0  0  0
 20 21  1  0  0  0  0
 20 22  1  0  0  0  0
 20 23  1  0  0  0  0
M  END
$$$$

  -OEChem-01062216093D

 23 22  0     1  0  0  0  0  0999 V2000
   -2.7832   -3.6875    1.1161 H   0  0  0  0  0  0  0  0  0  0  0  0
   -2.7271   -2.6445    0.7911 C   0  0  0  0  0  0  0  0  0  0  0  0
   -3.4186   -2.0511    1.3940 H   0  0  0  0  0  0  0  0  0  0  0  0
   -3.0261   -2.5898   -0.2584 H   0  0  0  0  0  0  0  0  0  0  0  0
   -1.3122   -2.1212    0.9569 C   0  0  0  0  0  0  0  0  0  0  0  0
   -0.4966   -2.8229    1.5271 O   0  0  0  0  0  0  0  0  0  0  0  0
   -1.0343   -0.8300    0.5428 N   0  0  0  0  0  0  0  0  0  0  0  0
   -1.8432   -0.3049    0.2281 H   0  0  0  0  0  0  0  0  0  0  0  0
    0.2758   -0.1249    0.4695 C   0  0  1  0  0  0  0  0  0  0  0  0
    0.4436    0.3833    1.4233 H   0  0  0  0  0  0  0  0  0  0  0  0
    1.4801   -1.0531    0.1976 C   0  0  0  0  0  0  0  0  0  0  0  0
    2.4020   -0.4638    0.2494 H   0  0  0  0  0  0  0  0  0  0  0  0
    1.5767   -1.8274    0.9606 H   0  0  0  0  0  0  0  0  0  0  0  0
    1.3845   -1.6353   -1.1116 O   0  0  0  0  0  0  0  0  0  0  0  0
    2.1129   -2.2656   -1.2507 H   0  0  0  0  0  0  0  0  0  0  0  0
    0.3232    0.9370   -0.6512 C   0  0  0  0  0  0  0  0  0  0  0  0
    1.2321    1.7583   -0.6687 O   0  0  0  0  0  0  0  0  0  0  0  0
   -0.7763    1.1517   -1.4677 N   0  0  0  0  0  0  0  0  0  0  0  0
   -1.3653    0.3386   -1.6122 H   0  0  0  0  0  0  0  0  0  0  0  0
   -0.7842    2.1828   -2.4997 C   0  0  0  0  0  0  0  0  0  0  0  0
    0.0114    2.0010   -3.2301 H   0  0  0  0  0  0  0  0  0  0  0  0
   -1.7445    2.1851   -3.0241 H   0  0  0  0  0  0  0  0  0  0  0  0
   -0.6342    3.1725   -2.0553 H   0  0  0  0  0  0  0  0  0  0  0  0
  1  2  1  0  0  0  0
  2  3  1  0  0  0  0
  2  4  1  0  0  0  0
  2  5  1  0  0  0  0
  5  6  2  0  0  0  0
  5  7  1  0  0  0  0
  7  8  1  0  0  0  0
  7  9  1  0  0  0  0
  9 10  1  0  0  0  0
  9 11  1  0  0  0  0
  9 16  1  0  0  0  0
 11 12  1  0  0  0  0
 11 13  1  0  0  0  0
 11 14  1  0  0  0  0
 14 15  1  0  0  0  0
 16 17  2  0  0  0  0
 16 18  1  0  0  0  0
 18 19  1  0  0  0  0
 18 20  1  0  0  0  0
 20 21  1  0  0  0  0
 20 22  1  0  0  0  0
 20 23  1  0  0  0  0
M  END
$$$$

  -OEChem-01062216093D

 23 22  0     1  0  0  0  0  0999 V2000
   -2.5758   -3.7135    1.1753 H   0  0  0  0  0  0  0  0  0  0  0  0
   -2.5250   -2.7455    0.6689 C   0  0  0  0  0  0  0  0  0  0  0  0
   -3.4394   -2.1874    0.8841 H   0  0  0  0  0  0  0  0  0  0  0  0
   -2.4528   -2.9174   -0.4078 H   0  0  0  0  0  0  0  0  0  0  0  0
   -1.3147   -1.9681    1.1507 C   0  0  0  0  0  0  0  0  0  0  0  0
   -0.6434   -2.4126    2.0664 O   0  0  0  0  0  0  0  0  0  0  0  0
   -1.0833   -0.7000    0.6519 N   0  0  0  0  0  0  0  0  0  0  0  0
   -1.7233   -0.4950   -0.1068 H   0  0  0  0  0  0  0  0  0  0  0  0
    0.2659   -0.0971    0.4697 C   0  0  1  0  0  0  0  0  0  0  0  0
    0.5295    0.4348    1.3883 H   0  0  0  0  0  0  0  0  0  0  0  0
    1.3624   -1.1543    0.1872 C   0  0  0  0  0  0  0  0  0  0  0  0
    2.3379   -0.6572    0.1566 H   0  0  0  0  0  0  0  0  0  0  0  0
    1.4312   -1.8989    0.9824 H   0  0  0  0  0  0  0  0  0  0  0  0
    1.1284   -1.7925   -1.0775 O   0  0  0  0  0  0  0  0  0  0  0  0
    1.8707   -2.3823   -1.2977 H   0  0  0  0  0  0  0  0  0  0  0  0
    0.3155    0.9207   -0.6972 C   0  0  0  0  0  0  0  0  0  0  0  0
    1.3780    1.3927   -1.0846 O   0  0  0  0  0  0  0  0  0  0  0  0
   -0.8570    1.4229   -1.2434 N   0  0  0  0  0  0  0  0  0  0  0  0
   -1.7117    1.2450   -0.7288 H   0  0  0  0  0  0  0  0  0  0  0  0
   -0.8664    2.4883   -2.2401 C   0  0  0  0  0  0  0  0  0  0  0  0
   -0.2778    2.1985   -3.1172 H   0  0  0  0  0  0  0  0  0  0  0  0
   -1.8905    2.6917   -2.5671 H   0  0  0  0  0  0  0  0  0  0  0  0
   -0.4457    3.4088   -1.8220 H   0  0  0  0  0  0  0  0  0  0  0  0
  1  2  1  0  0  0  0
  2  3  1  0  0  0  0
  2  4  1  0  0  0  0
  2  5  1  0  0  0  0
  5  6  2  0  0  0  0
  5  7  1  0  0  0  0
  7  8  1  0  0  0  0
  7  9  1  0  0  0  0
  9 10  1  0  0  0  0
  9 11  1  0  0  0  0
  9 16  1  0  0  0  0
 11 12  1  0  0  0  0
 11 13  1  0  0  0  0
 11 14  1  0  0  0  0
 14 15  1  0  0  0  0
 16 17  2  0  0  0  0
 16 18  1  0  0  0  0
 18 19  1  0  0  0  0
 18 20  1  0  0  0  0
 20 21  1  0  0  0  0
 20 22  1  0  0  0  0
 20 23  1  0  0  0  0
M  END
$$$$

  -OEChem-01062216093D

 23 22  0     1  0  0  0  0  0999 V2000
   -2.5653   -3.7075    1.1501 H   0  0  0  0  0  0  0  0  0  0  0  0
   -2.5166   -2.7358    0.6504 C   0  0  0  0  0  0  0  0  0  0  0  0
   -3.4350   -2.1837    0.8638 H   0  0  0  0  0  0  0  0  0  0  0  0
   -2.4374   -2.9000   -0.4271 H   0  0  0  0  0  0  0  0  0  0  0  0
   -1.3127   -1.9559    1.1443 C   0  0  0  0  0  0  0  0  0  0  0  0
   -0.6506   -2.3963    2.0688 O   0  0  0  0  0  0  0  0  0  0  0  0
   -1.0757   -0.6890    0.6457 N   0  0  0  0  0  0  0  0  0  0  0  0
   -1.7166   -0.4750   -0.1119 H   0  0  0  0  0  0  0  0  0  0  0  0
    0.2752   -0.0937    0.4579 C   0  0  1  0  0  0  0  0  0  0  0  0
    0.5416    0.4457    1.3712 H   0  0  0  0  0  0  0  0  0  0  0  0
    1.3684   -1.1590    0.1912 C   0  0  0  0  0  0  0  0  0  0  0  0
    2.3433   -0.6617    0.1527 H   0  0  0  0  0  0  0  0  0  0  0  0
    1.4370   -1.8913    0.9979 H   0  0  0  0  0  0  0  0  0  0  0  0
    1.1355   -1.8150   -1.0645 O   0  0  0  0  0  0  0  0  0  0  0  0
    1.8910   -2.3844   -1.2918 H   0  0  0  0  0  0  0  0  0  0  0  0
    0.2978    0.9197   -0.7133 C   0  0  0  0  0  0  0  0  0  0  0  0
    1.3313    1.2410   -1.2881 O   0  0  0  0  0  0  0  0  0  0  0  0
   -0.8572    1.6271   -1.0108 N   0  0  0  0  0  0  0  0  0  0  0  0
   -1.6206    1.5461   -0.3469 H   0  0  0  0  0  0  0  0  0  0  0  0
   -0.8879    2.7271   -1.9686 C   0  0  0  0  0  0  0  0  0  0  0  0
   -0.5525    2.3867   -2.9540 H   0  0  0  0  0  0  0  0  0  0  0  0
   -1.9066    3.1139   -2.0678 H   0  0  0  0  0  0  0  0  0  0  0  0
   -0.2372    3.5432   -1.6377 H   0  0  0  0  0  0  0  0  0  0  0  0
  1  2  1  0  0  0  0
  2  3  1  0  0  0  0
  2  4  1  0  0  0  0
  2  5  1  0  0  0  0
  5  6  2  0  0  0  0
  5  7  1  0  0  0  0
  7  8  1  0  0  0  0
  7  9  1  0  0  0  0
  9 10  1  0  0  0  0
  9 11  1  0  0  0  0
  9 16  1  0  0  0  0
 11 12  1  0  0  0  0
 11 13  1  0  0  0  0
 11 14  1  0  0  0  0
 14 15  1  0  0  0  0
 16 17  2  0  0  0  0
 16 18  1  0  0  0  0
 18 19  1  0  0  0  0
 18 20  1  0  0  0  0
 20 21  1  0  0  0  0
 20 22  1  0  0  0  0
 20 23  1  0  0  0  0
M  END
$$$$

  -OEChem-01062216093D

 23 22  0     1  0  0  0  0  0999 V2000
   -2.5746   -3.7038    1.1397 H   0  0  0  0  0  0  0  0  0  0  0  0
   -2.5271   -2.7273    0.6492 C   0  0  0  0  0  0  0  0  0  0  0  0
   -3.4382   -2.1713    0.8826 H   0  0  0  0  0  0  0  0  0  0  0  0
   -2.4655   -2.8810   -0.4310 H   0  0  0  0  0  0  0  0  0  0  0  0
   -1.3103   -1.9604    1.1315 C   0  0  0  0  0  0  0  0  0  0  0  0
   -0.6429   -2.4100    2.0478 O   0  0  0  0  0  0  0  0  0  0  0  0
   -1.0707   -0.6916    0.6388 N   0  0  0  0  0  0  0  0  0  0  0  0
   -1.7278   -0.4545   -0.0987 H   0  0  0  0  0  0  0  0  0  0  0  0
    0.2769   -0.0934    0.4437 C   0  0  1  0  0  0  0  0  0  0  0  0
    0.5439    0.4498    1.3544 H   0  0  0  0  0  0  0  0  0  0  0  0
    1.3752   -1.1571    0.1902 C   0  0  0  0  0  0  0  0  0  0  0  0
    2.3453   -0.6509    0.1423 H   0  0  0  0  0  0  0  0  0  0  0  0
    1.4507   -1.8757    1.0084 H   0  0  0  0  0  0  0  0  0  0  0  0
    1.1519   -1.8350   -1.0554 O   0  0  0  0  0  0  0  0  0  0  0  0
    1.9194   -2.3882   -1.2813 H   0  0  0  0  0  0  0  0  0  0  0  0
    0.2744    0.9234   -0.7244 C   0  0  0  0  0  0  0  0  0  0  0  0
    1.2300    1.1040   -1.4698 O   0  0  0  0  0  0  0  0  0  0  0  0
   -0.7727    1.8285   -0.7913 N   0  0  0  0  0  0  0  0  0  0  0  0
   -1.4434    1.8083   -0.0287 H   0  0  0  0  0  0  0  0  0  0  0  0
   -0.7919    2.9622   -1.7092 C   0  0  0  0  0  0  0  0  0  0  0  0
   -0.7114    2.6180   -2.7458 H   0  0  0  0  0  0  0  0  0  0  0  0
   -1.7282    3.5184   -1.6038 H   0  0  0  0  0  0  0  0  0  0  0  0
    0.0409    3.6411   -1.4981 H   0  0  0  0  0  0  0  0  0  0  0  0
  1  2  1  0  0  0  0
  2  3  1  0  0  0  0
  2  4  1  0  0  0  0
  2  5  1  0  0  0  0
  5  6  2  0  0  0  0
  5  7  1  0  0  0  0
  7  8  1  0  0  0  0
  7  9  1  0  0  0  0
  9 10  1  0  0  0  0
  9 11  1  0  0  0  0
  9 16  1  0  0  0  0
 11 12  1  0  0  0  0
 11 13  1  0  0  0  0
 11 14  1  0  0  0  0
 14 15  1  0  0  0  0
 16 17  2  0  0  0  0
 16 18  1  0  0  0  0
 18 19  1  0  0  0  0
 18 20  1  0  0  0  0
 20 21  1  0  0  0  0
 20 22  1  0  0  0  0
 20 23  1  0  0  0  0
M  END
$$$$

  -OEChem-01062216093D

 23 22  0     1  0  0  0  0  0999 V2000
   -2.5840   -3.7053    1.1280 H   0  0  0  0  0  0  0  0  0  0  0  0
   -2.5366   -2.7237    0.6480 C   0  0  0  0  0  0  0  0  0  0  0  0
   -3.4395   -2.1631    0.9013 H   0  0  0  0  0  0  0  0  0  0  0  0
   -2.4932   -2.8657   -0.4347 H   0  0  0  0  0  0  0  0  0  0  0  0
   -1.3066   -1.9712    1.1193 C   0  0  0  0  0  0  0  0  0  0  0  0
   -0.6281   -2.4367    2.0195 O   0  0  0  0  0  0  0  0  0  0  0  0
   -1.0701   -0.6964    0.6410 N   0  0  0  0  0  0  0  0  0  0  0  0
   -1.7455   -0.4373   -0.0725 H   0  0  0  0  0  0  0  0  0  0  0  0
    0.2725   -0.0941    0.4330 C   0  0  1  0  0  0  0  0  0  0  0  0
    0.5421    0.4463    1.3445 H   0  0  0  0  0  0  0  0  0  0  0  0
    1.3799   -1.1514    0.1883 C   0  0  0  0  0  0  0  0  0  0  0  0
    2.3414   -0.6308    0.1261 H   0  0  0  0  0  0  0  0  0  0  0  0
    1.4697   -1.8543    1.0190 H   0  0  0  0  0  0  0  0  0  0  0  0
    1.1676   -1.8541   -1.0450 O   0  0  0  0  0  0  0  0  0  0  0  0
    1.9440   -2.3961   -1.2659 H   0  0  0  0  0  0  0  0  0  0  0  0
    0.2478    0.9382   -0.7217 C   0  0  0  0  0  0  0  0  0  0  0  0
    1.0534    0.9710   -1.6434 O   0  0  0  0  0  0  0  0  0  0  0  0
   -0.6042    2.0212   -0.5825 N   0  0  0  0  0  0  0  0  0  0  0  0
   -1.1627    2.0641    0.2653 H   0  0  0  0  0  0  0  0  0  0  0  0
   -0.6010    3.1696   -1.4822 C   0  0  0  0  0  0  0  0  0  0  0  0
   -0.8038    2.8519   -2.5104 H   0  0  0  0  0  0  0  0  0  0  0  0
   -1.3731    3.8857   -1.1849 H   0  0  0  0  0  0  0  0  0  0  0  0
    0.3699    3.6758   -1.4546 H   0  0  0  0  0  0  0  0  0  0  0  0
  1  2  1  0  0  0  0
  2  3  1  0  0  0  0
  2  4  1  0  0  0  0
  2  5  1  0  0  0  0
  5  6  2  0  0  0  0
  5  7  1  0  0  0  0
  7  8  1  0  0  0  0
  7  9  1  0  0  0  0
  9 10  1  0  0  0  0
  9 11  1  0  0  0  0
  9 16  1  0  0  0  0
 11 12  1  0  0  0  0
 11 13  1  0  0  0  0
 11 14  1  0  0  0  0
 14 15  1  0  0  0  0
 16 17  2  0  0  0  0
 16 18  1  0  0  0  0
 18 19  1  0  0  0  0
 18 20  1  0  0  0  0
 20 21  1  0  0  0  0
 20 22  1  0  0  0  0
 20 23  1  0  0  0  0
M  END
$$$$

  -OEChem-01062216093D

 23 22  0     1  0  0  0  0  0999 V2000
   -2.6008   -3.6995    1.0713 H   0  0  0  0  0  0  0  0  0  0  0  0
   -2.5497   -2.7048    0.6194 C   0  0  0  0  0  0  0  0  0  0  0  0
   -3.4438   -2.1433    0.9004 H   0  0  0  0  0  0  0  0  0  0  0  0
   -2.5213   -2.8152   -0.4675 H   0  0  0  0  0  0  0  0  0  0  0  0
   -1.3063   -1.9781    1.0965 C   0  0  0  0  0  0  0  0  0  0  0  0
   -0.6211   -2.4758    1.9744 O   0  0  0  0  0  0  0  0  0  0  0  0
   -1.0642   -0.6924    0.6522 N   0  0  0  0  0  0  0  0  0  0  0  0
   -1.7472   -0.4044   -0.0429 H   0  0  0  0  0  0  0  0  0  0  0  0
    0.2797   -0.0979    0.4424 C   0  0  1  0  0  0  0  0  0  0  0  0
    0.5508    0.4230    1.3650 H   0  0  0  0  0  0  0  0  0  0  0  0
    1.3964   -1.1465    0.1969 C   0  0  0  0  0  0  0  0  0  0  0  0
    2.3510   -0.6135    0.1356 H   0  0  0  0  0  0  0  0  0  0  0  0
    1.4909   -1.8434    1.0320 H   0  0  0  0  0  0  0  0  0  0  0  0
    1.2092   -1.8623   -1.0315 O   0  0  0  0  0  0  0  0  0  0  0  0
    1.9814   -2.4193   -1.2266 H   0  0  0  0  0  0  0  0  0  0  0  0
    0.2485    0.9678   -0.6818 C   0  0  0  0  0  0  0  0  0  0  0  0
    0.7493    0.8386   -1.7904 O   0  0  0  0  0  0  0  0  0  0  0  0
   -0.3239    2.1920   -0.3804 N   0  0  0  0  0  0  0  0  0  0  0  0
   -0.7046    2.3124    0.5539 H   0  0  0  0  0  0  0  0  0  0  0  0
   -0.3636    3.3165   -1.3088 C   0  0  0  0  0  0  0  0  0  0  0  0
   -0.9073    3.0436   -2.2194 H   0  0  0  0  0  0  0  0  0  0  0  0
   -0.8696    4.1700   -0.8476 H   0  0  0  0  0  0  0  0  0  0  0  0
    0.6513    3.6234   -1.5827 H   0  0  0  0  0  0  0  0  0  0  0  0
  1  2  1  0  0  0  0
  2  3  1  0  0  0  0
  2  4  1  0  0  0  0
  2  5  1  0  0  0  0
  5  6  2  0  0  0  0
  5  7  1  0  0  0  0
  7  8  1  0  0  0  0
  7  9  1  0  0  0  0
  9 10  1  0  0  0  0
  9 11  1  0  0  0  0
  9 16  1  0  0  0  0
 11 12  1  0  0  0  0
 11 13  1  0  0  0  0
 11 14  1  0  0  0  0
 14 15  1  0  0  0  0
 16 17  2  0  0  0  0
 16 18  1  0  0  0  0
 18 19  1  0  0  0  0
 18 20  1  0  0  0  0
 20 21  1  0  0  0  0
 20 22  1  0  0  0  0
 20 23  1  0  0  0  0
M  END
$$$$

  -OEChem-01062216093D

 23 22  0     1  0  0  0  0  0999 V2000
   -2.6154   -3.6768    0.9616 H   0  0  0  0  0  0  0  0  0  0  0  0
   -2.5655   -2.6604    0.5611 C   0  0  0  0  0  0  0  0  0  0  0  0
   -3.4545   -2.1111    0.8798 H   0  0  0  0  0  0  0  0  0  0  0  0
   -2.5478   -2.7143   -0.5303 H   0  0  0  0  0  0  0  0  0  0  0  0
   -1.3152   -1.9635    1.0632 C   0  0  0  0  0  0  0  0  0  0  0  0
   -0.6379   -2.4968    1.9269 O   0  0  0  0  0  0  0  0  0  0  0  0
   -1.0483   -0.6724    0.6521 N   0  0  0  0  0  0  0  0  0  0  0  0
   -1.7062   -0.3611   -0.0585 H   0  0  0  0  0  0  0  0  0  0  0  0
    0.3091   -0.1054    0.4758 C   0  0  1  0  0  0  0  0  0  0  0  0
    0.5662    0.3897    1.4158 H   0  0  0  0  0  0  0  0  0  0  0  0
    1.4343   -1.1426    0.2260 C   0  0  0  0  0  0  0  0  0  0  0  0
    2.3889   -0.6072    0.2038 H   0  0  0  0  0  0  0  0  0  0  0  0
    1.5056   -1.8595    1.0467 H   0  0  0  0  0  0  0  0  0  0  0  0
    1.2853   -1.8351   -1.0186 O   0  0  0  0  0  0  0  0  0  0  0  0
    2.0153   -2.4614   -1.1579 H   0  0  0  0  0  0  0  0  0  0  0  0
    0.3062    0.9825   -0.6238 C   0  0  0  0  0  0  0  0  0  0  0  0
    0.2806    0.7342   -1.8212 O   0  0  0  0  0  0  0  0  0  0  0  0
    0.0620    2.2922   -0.2452 N   0  0  0  0  0  0  0  0  0  0  0  0
   -0.0266    2.4850    0.7482 H   0  0  0  0  0  0  0  0  0  0  0  0
   -0.1143    3.3874   -1.1929 C   0  0  0  0  0  0  0  0  0  0  0  0
   -1.0070    3.2246   -1.8058 H   0  0  0  0  0  0  0  0  0  0  0  0
   -0.2289    4.3354   -0.6586 H   0  0  0  0  0  0  0  0  0  0  0  0
    0.7561    3.4675   -1.8529 H   0  0  0  0  0  0  0  0  0  0  0  0
  1  2  1  0  0  0  0
  2  3  1  0  0  0  0
  2  4  1  0  0  0  0
  2  5  1  0  0  0  0
  5  6  2  0  0  0  0
  5  7  1  0  0  0  0
  7  8  1  0  0  0  0
  7  9  1  0  0  0  0
  9 10  1  0  0  0  0
  9 11  1  0  0  0  0
  9 16  1  0  0  0  0
 11 12  1  0  0  0  0
 11 13  1  0  0  0  0
 11 14  1  0  0  0  0
 14 15  1  0  0  0  0
 16 17  2  0  0  0  0
 16 18  1  0  0  0  0
 18 19  1  0  0  0  0
 18 20  1  0  0  0  0
 20 21  1  0  0  0  0
 20 22  1  0  0  0  0
 20 23  1  0  0  0  0
M  END
$$$$

  -OEChem-01062216093D

 23 22  0     1  0  0  0  0  0999 V2000
   -2.6579   -3.6388    0.9405 H   0  0  0  0  0  0  0  0  0  0  0  0
   -2.5801   -2.6254    0.5368 C   0  0  0  0  0  0  0  0  0  0  0  0
   -3.4608   -2.0549    0.8410 H   0  0  0  0  0  0  0  0  0  0  0  0
   -2.5491   -2.6838   -0.5541 H   0  0  0  0  0  0  0  0  0  0  0  0
   -1.3223   -1.9523    1.0523 C   0  0  0  0  0  0  0  0  0  0  0  0
   -0.6496   -2.5077    1.9061 O   0  0  0  0  0  0  0  0  0  0  0  0
   -1.0314   -0.6652    0.6480 N   0  0  0  0  0  0  0  0  0  0  0  0
   -1.6622   -0.3450   -0.0846 H   0  0  0  0  0  0  0  0  0  0  0  0
    0.3339   -0.1133    0.5063 C   0  0  1  0  0  0  0  0  0  0  0  0
    0.5774    0.3722    1.4549 H   0  0  0  0  0  0  0  0  0  0  0  0
    1.4610   -1.1408    0.2414 C   0  0  0  0  0  0  0  0  0  0  0  0
    2.4188   -0.6105    0.2532 H   0  0  0  0  0  0  0  0  0  0  0  0
    1.5124   -1.8863    1.0380 H   0  0  0  0  0  0  0  0  0  0  0  0
    1.3262   -1.7892   -1.0273 O   0  0  0  0  0  0  0  0  0  0  0  0
    2.0147   -2.4651   -1.1468 H   0  0  0  0  0  0  0  0  0  0  0  0
    0.3486    0.9684   -0.5953 C   0  0  0  0  0  0  0  0  0  0  0  0
   -0.0578    0.7335   -1.7268 O   0  0  0  0  0  0  0  0  0  0  0  0
    0.4193    2.2990   -0.2177 N   0  0  0  0  0  0  0  0  0  0  0  0
    0.5974    2.5009    0.7616 H   0  0  0  0  0  0  0  0  0  0  0  0
    0.1834    3.4115   -1.1313 C   0  0  0  0  0  0  0  0  0  0  0  0
   -0.8568    3.4124   -1.4737 H   0  0  0  0  0  0  0  0  0  0  0  0
    0.3838    4.3623   -0.6282 H   0  0  0  0  0  0  0  0  0  0  0  0
    0.8417    3.3389   -2.0037 H   0  0  0  0  0  0  0  0  0  0  0  0
  1  2  1  0  0  0  0
  2  3  1  0  0  0  0
  2  4  1  0  0  0  0
  2  5  1  0  0  0  0
  5  6  2  0  0  0  0
  5  7  1  0  0  0  0
  7  8  1  0  0  0  0
  7  9  1  0  0  0  0
  9 10  1  0  0  0  0
  9 11  1  0  0  0  0
  9 16  1  0  0  0  0
 11 12  1  0  0  0  0
 11 13  1  0  0  0  0
 11 14  1  0  0  0  0
 14 15  1  0  0  0  0
 16 17  2  0  0  0  0
 16 18  1  0  0  0  0
 18 19  1  0  0  0  0
 18 20  1  0  0  0  0
 20 21  1  0  0  0  0
 20 22  1  0  0  0  0
 20 23  1  0  0  0  0
M  END
$$$$

  -OEChem-01062216093D

 23 22  0     1  0  0  0  0  0999 V2000
   -2.6795   -3.6355    0.9502 H   0  0  0  0  0  0  0  0  0  0  0  0
   -2.5915   -2.6251    0.5415 C   0  0  0  0  0  0  0  0  0  0  0  0
   -3.4658   -2.0440    0.8443 H   0  0  0  0  0  0  0  0  0  0  0  0
   -2.5628   -2.6888   -0.5492 H   0  0  0  0  0  0  0  0  0  0  0  0
   -1.3257   -1.9628    1.0515 C   0  0  0  0  0  0  0  0  0  0  0  0
   -0.6440   -2.5316    1.8894 O   0  0  0  0  0  0  0  0  0  0  0  0
   -1.0297   -0.6765    0.6498 N   0  0  0  0  0  0  0  0  0  0  0  0
   -1.6539   -0.3467   -0.0857 H   0  0  0  0  0  0  0  0  0  0  0  0
    0.3338   -0.1169    0.5277 C   0  0  1  0  0  0  0  0  0  0  0  0
    0.5661    0.3650    1.4809 H   0  0  0  0  0  0  0  0  0  0  0  0
    1.4666   -1.1311    0.2457 C   0  0  0  0  0  0  0  0  0  0  0  0
    2.4236   -0.6002    0.2758 H   0  0  0  0  0  0  0  0  0  0  0  0
    1.5145   -1.8974    1.0224 H   0  0  0  0  0  0  0  0  0  0  0  0
    1.3330   -1.7441   -1.0406 O   0  0  0  0  0  0  0  0  0  0  0  0
    1.9975   -2.4438   -1.1617 H   0  0  0  0  0  0  0  0  0  0  0  0
    0.3552    0.9612   -0.5765 C   0  0  0  0  0  0  0  0  0  0  0  0
   -0.2769    0.8012   -1.6155 O   0  0  0  0  0  0  0  0  0  0  0  0
    0.7219    2.2561   -0.2493 N   0  0  0  0  0  0  0  0  0  0  0  0
    1.1157    2.4160    0.6729 H   0  0  0  0  0  0  0  0  0  0  0  0
    0.5352    3.3963   -1.1399 C   0  0  0  0  0  0  0  0  0  0  0  0
   -0.5311    3.5939   -1.2909 H   0  0  0  0  0  0  0  0  0  0  0  0
    0.9959    4.2909   -0.7103 H   0  0  0  0  0  0  0  0  0  0  0  0
    0.9996    3.2043   -2.1129 H   0  0  0  0  0  0  0  0  0  0  0  0
  1  2  1  0  0  0  0
  2  3  1  0  0  0  0
  2  4  1  0  0  0  0
  2  5  1  0  0  0  0
  5  6  2  0  0  0  0
  5  7  1  0  0  0  0
  7  8  1  0  0  0  0
  7  9  1  0  0  0  0
  9 10  1  0  0  0  0
  9 11  1  0  0  0  0
  9 16  1  0  0  0  0
 11 12  1  0  0  0  0
 11 13  1  0  0  0  0
 11 14  1  0  0  0  0
 14 15  1  0  0  0  0
 16 17  2  0  0  0  0
 16 18  1  0  0  0  0
 18 19  1  0  0  0  0
 18 20  1  0  0  0  0
 20 21  1  0  0  0  0
 20 22  1  0  0  0  0
 20 23  1  0  0  0  0
M  END
$$$$

  -OEChem-01062216093D

 23 22  0     1  0  0  0  0  0999 V2000
   -2.6918   -3.6421    0.9502 H   0  0  0  0  0  0  0  0  0  0  0  0
   -2.6054   -2.6260    0.5557 C   0  0  0  0  0  0  0  0  0  0  0  0
   -3.4702   -2.0445    0.8840 H   0  0  0  0  0  0  0  0  0  0  0  0
   -2.5985   -2.6721   -0.5362 H   0  0  0  0  0  0  0  0  0  0  0  0
   -1.3264   -1.9784    1.0512 C   0  0  0  0  0  0  0  0  0  0  0  0
   -0.6332   -2.5620    1.8692 O   0  0  0  0  0  0  0  0  0  0  0  0
   -1.0276   -0.6916    0.6539 N   0  0  0  0  0  0  0  0  0  0  0  0
   -1.6559   -0.3456   -0.0715 H   0  0  0  0  0  0  0  0  0  0  0  0
    0.3313   -0.1182    0.5457 C   0  0  1  0  0  0  0  0  0  0  0  0
    0.5575    0.3606    1.5020 H   0  0  0  0  0  0  0  0  0  0  0  0
    1.4683   -1.1207    0.2457 C   0  0  0  0  0  0  0  0  0  0  0  0
    2.4246   -0.5891    0.2875 H   0  0  0  0  0  0  0  0  0  0  0  0
    1.5174   -1.9042    1.0049 H   0  0  0  0  0  0  0  0  0  0  0  0
    1.3317   -1.7038   -1.0547 O   0  0  0  0  0  0  0  0  0  0  0  0
    1.9824   -2.4149   -1.1851 H   0  0  0  0  0  0  0  0  0  0  0  0
    0.3536    0.9598   -0.5582 C   0  0  0  0  0  0  0  0  0  0  0  0
   -0.4363    0.9005   -1.4963 O   0  0  0  0  0  0  0  0  0  0  0  0
    0.9890    2.1674   -0.3234 N   0  0  0  0  0  0  0  0  0  0  0  0
    1.5580    2.2474    0.5138 H   0  0  0  0  0  0  0  0  0  0  0  0
    0.8838    3.3164   -1.2154 C   0  0  0  0  0  0  0  0  0  0  0  0
   -0.1465    3.6862   -1.2440 H   0  0  0  0  0  0  0  0  0  0  0  0
    1.5326    4.1261   -0.8677 H   0  0  0  0  0  0  0  0  0  0  0  0
    1.1887    3.0431   -2.2312 H   0  0  0  0  0  0  0  0  0  0  0  0
  1  2  1  0  0  0  0
  2  3  1  0  0  0  0
  2  4  1  0  0  0  0
  2  5  1  0  0  0  0
  5  6  2  0  0  0  0
  5  7  1  0  0  0  0
  7  8  1  0  0  0  0
  7  9  1  0  0  0  0
  9 10  1  0  0  0  0
  9 11  1  0  0  0  0
  9 16  1  0  0  0  0
 11 12  1  0  0  0  0
 11 13  1  0  0  0  0
 11 14  1  0  0  0  0
 14 15  1  0  0  0  0
 16 17  2  0  0  0  0
 16 18  1  0  0  0  0
 18 19  1  0  0  0  0
 18 20  1  0  0  0  0
 20 21  1  0  0  0  0
 20 22  1  0  0  0  0
 20 23  1  0  0  0  0
M  END
$$$$

  -OEChem-01062216093D

 23 22  0     1  0  0  0  0  0999 V2000
   -2.6956   -3.6570    0.9343 H   0  0  0  0  0  0  0  0  0  0  0  0
   -2.6202   -2.6286    0.5706 C   0  0  0  0  0  0  0  0  0  0  0  0
   -3.4714   -2.0569    0.9479 H   0  0  0  0  0  0  0  0  0  0  0  0
   -2.6514   -2.6389   -0.5216 H   0  0  0  0  0  0  0  0  0  0  0  0
   -1.3232   -1.9996    1.0429 C   0  0  0  0  0  0  0  0  0  0  0  0
   -0.6140   -2.6048    1.8309 O   0  0  0  0  0  0  0  0  0  0  0  0
   -1.0242   -0.7093    0.6573 N   0  0  0  0  0  0  0  0  0  0  0  0
   -1.6677   -0.3363   -0.0413 H   0  0  0  0  0  0  0  0  0  0  0  0
    0.3279   -0.1168    0.5609 C   0  0  1  0  0  0  0  0  0  0  0  0
    0.5475    0.3575    1.5210 H   0  0  0  0  0  0  0  0  0  0  0  0
    1.4717   -1.1059    0.2446 C   0  0  0  0  0  0  0  0  0  0  0  0
    2.4256   -0.5712    0.2956 H   0  0  0  0  0  0  0  0  0  0  0  0
    1.5258   -1.9028    0.9893 H   0  0  0  0  0  0  0  0  0  0  0  0
    1.3338   -1.6639   -1.0668 O   0  0  0  0  0  0  0  0  0  0  0  0
    1.9676   -2.3898   -1.2013 H   0  0  0  0  0  0  0  0  0  0  0  0
    0.3466    0.9691   -0.5362 C   0  0  0  0  0  0  0  0  0  0  0  0
   -0.5605    1.0301   -1.3625 O   0  0  0  0  0  0  0  0  0  0  0  0
    1.2097    2.0462   -0.4287 N   0  0  0  0  0  0  0  0  0  0  0  0
    1.9281    2.0054    0.2874 H   0  0  0  0  0  0  0  0  0  0  0  0
    1.1984    3.1746   -1.3519 C   0  0  0  0  0  0  0  0  0  0  0  0
    0.2411    3.7038   -1.2998 H   0  0  0  0  0  0  0  0  0  0  0  0
    1.9964    3.8788   -1.0982 H   0  0  0  0  0  0  0  0  0  0  0  0
    1.3553    2.8300   -2.3795 H   0  0  0  0  0  0  0  0  0  0  0  0
  1  2  1  0  0  0  0
  2  3  1  0  0  0  0
  2  4  1  0  0  0  0
  2  5  1  0  0  0  0
  5  6  2  0  0  0  0
  5  7  1  0  0  0  0
  7  8  1  0  0  0  0
  7  9  1  0  0  0  0
  9 10  1  0  0  0  0
  9 11  1  0  0  0  0
  9 16  1  0  0  0  0
 11 12  1  0  0  0  0
 11 13  1  0  0  0  0
 11 14  1  0  0  0  0
 14 15  1  0  0  0  0
 16 17  2  0  0  0  0
 16 18  1  0  0  0  0
 18 19  1  0  0  0  0
 18 20  1  0  0  0  0
 20 21  1  0  0  0  0
 20 22  1  0  0  0  0
 20 23  1  0  0  0  0
M  END
$$$$

  -OEChem-01062216093D

 23 22  0     1  0  0  0  0  0999 V2000
   -2.7197   -3.6494    0.9272 H   0  0  0  0  0  0  0  0  0  0  0  0
   -2.6351   -2.6179    0.5744 C   0  0  0  0  0  0  0  0  0  0  0  0
   -3.4690   -2.0373    0.9762 H   0  0  0  0  0  0  0  0  0  0  0  0
   -2.6893   -2.6143   -0.5170 H   0  0  0  0  0  0  0  0  0  0  0  0
   -1.3184   -2.0159    1.0278 C   0  0  0  0  0  0  0  0  0  0  0  0
   -0.5998   -2.6485    1.7851 O   0  0  0  0  0  0  0  0  0  0  0  0
   -1.0103   -0.7232    0.6565 N   0  0  0  0  0  0  0  0  0  0  0  0
   -1.6681   -0.3176   -0.0103 H   0  0  0  0  0  0  0  0  0  0  0  0
    0.3382   -0.1181    0.5746 C   0  0  1  0  0  0  0  0  0  0  0  0
    0.5533    0.3514    1.5382 H   0  0  0  0  0  0  0  0  0  0  0  0
    1.4842   -1.1035    0.2514 C   0  0  0  0  0  0  0  0  0  0  0  0
    2.4399   -0.5736    0.3140 H   0  0  0  0  0  0  0  0  0  0  0  0
    1.5342   -1.9093    0.9864 H   0  0  0  0  0  0  0  0  0  0  0  0
    1.3484   -1.6442   -1.0679 O   0  0  0  0  0  0  0  0  0  0  0  0
    1.9597   -2.3901   -1.1984 H   0  0  0  0  0  0  0  0  0  0  0  0
    0.3547    0.9767   -0.5154 C   0  0  0  0  0  0  0  0  0  0  0  0
   -0.6403    1.1711   -1.2098 O   0  0  0  0  0  0  0  0  0  0  0  0
    1.3926    1.8912   -0.5771 N   0  0  0  0  0  0  0  0  0  0  0  0
    2.2106    1.7126   -0.0031 H   0  0  0  0  0  0  0  0  0  0  0  0
    1.4339    2.9872   -1.5376 C   0  0  0  0  0  0  0  0  0  0  0  0
    0.5844    3.6617   -1.3870 H   0  0  0  0  0  0  0  0  0  0  0  0
    2.3565    3.5626   -1.4155 H   0  0  0  0  0  0  0  0  0  0  0  0
    1.4000    2.6005   -2.5617 H   0  0  0  0  0  0  0  0  0  0  0  0
  1  2  1  0  0  0  0
  2  3  1  0  0  0  0
  2  4  1  0  0  0  0
  2  5  1  0  0  0  0
  5  6  2  0  0  0  0
  5  7  1  0  0  0  0
  7  8  1  0  0  0  0
  7  9  1  0  0  0  0
  9 10  1  0  0  0  0
  9 11  1  0  0  0  0
  9 16  1  0  0  0  0
 11 12  1  0  0  0  0
 11 13  1  0  0  0  0
 11 14  1  0  0  0  0
 14 15  1  0  0  0  0
 16 17  2  0  0  0  0
 16 18  1  0  0  0  0
 18 19  1  0  0  0  0
 18 20  1  0  0  0  0
 20 21  1  0  0  0  0
 20 22  1  0  0  0  0
 20 23  1  0  0  0  0
M  END
$$$$

  -OEChem-01062216093D

 23 22  0     1  0  0  0  0  0999 V2000
   -2.7186   -3.6621    0.9465 H   0  0  0  0  0  0  0  0  0  0  0  0
   -2.6569   -2.6203    0.6199 C   0  0  0  0  0  0  0  0  0  0  0  0
   -3.4395   -2.0458    1.1215 H   0  0  0  0  0  0  0  0  0  0  0  0
   -2.8197   -2.5797   -0.4599 H   0  0  0  0  0  0  0  0  0  0  0  0
   -1.2947   -2.0455    0.9590 C   0  0  0  0  0  0  0  0  0  0  0  0
   -0.5026   -2.7103    1.6079 O   0  0  0  0  0  0  0  0  0  0  0  0
   -1.0014   -0.7477    0.5985 N   0  0  0  0  0  0  0  0  0  0  0  0
   -1.7087   -0.2721    0.0381 H   0  0  0  0  0  0  0  0  0  0  0  0
    0.3360   -0.1215    0.5523 C   0  0  1  0  0  0  0  0  0  0  0  0
    0.6460    0.1071    1.5757 H   0  0  0  0  0  0  0  0  0  0  0  0
    1.4094   -1.0233   -0.0985 C   0  0  0  0  0  0  0  0  0  0  0  0
    2.3906   -0.5484   -0.0008 H   0  0  0  0  0  0  0  0  0  0  0  0
    1.4798   -1.9848    0.4146 H   0  0  0  0  0  0  0  0  0  0  0  0
    1.1325   -1.2358   -1.4879 O   0  0  0  0  0  0  0  0  0  0  0  0
    1.7112   -1.9280   -1.8527 H   0  0  0  0  0  0  0  0  0  0  0  0
    0.2736    1.2026   -0.2441 C   0  0  0  0  0  0  0  0  0  0  0  0
   -0.8087    1.6351   -0.6328 O   0  0  0  0  0  0  0  0  0  0  0  0
    1.4034    1.9816   -0.4306 N   0  0  0  0  0  0  0  0  0  0  0  0
    2.2964    1.5751   -0.1710 H   0  0  0  0  0  0  0  0  0  0  0  0
    1.3938    3.2252   -1.1912 C   0  0  0  0  0  0  0  0  0  0  0  0
    0.7060    3.9474   -0.7387 H   0  0  0  0  0  0  0  0  0  0  0  0
    2.3948    3.6667   -1.2064 H   0  0  0  0  0  0  0  0  0  0  0  0
    1.0805    3.0392   -2.2238 H   0  0  0  0  0  0  0  0  0  0  0  0
  1  2  1  0  0  0  0
  2  3  1  0  0  0  0
  2  4  1  0  0  0  0
  2  5  1  0  0  0  0
  5  6  2  0  0  0  0
  5  7  1  0  0  0  0
  7  8  1  0  0  0  0
  7  9  1  0  0  0  0
  9 10  1  0  0  0  0
  9 11  1  0  0  0  0
  9 16  1  0  0  0  0
 11 12  1  0  0  0  0
 11 13  1  0  0  0  0
 11 14  1  0  0  0  0
 14 15  1  0  0  0  0
 16 17  2  0  0  0  0
 16 18  1  0  0  0  0
 18 19  1  0  0  0  0
 18 20  1  0  0  0  0
 20 21  1  0  0  0  0
 20 22  1  0  0  0  0
 20 23  1  0  0  0  0
M  END
$$$$

  -OEChem-01062216093D

 23 22  0     1  0  0  0  0  0999 V2000
   -2.7535   -3.6350    0.9084 H   0  0  0  0  0  0  0  0  0  0  0  0
   -2.6781   -2.5842    0.6150 C   0  0  0  0  0  0  0  0  0  0  0  0
   -3.4305   -2.0098    1.1607 H   0  0  0  0  0  0  0  0  0  0  0  0
   -2.8742   -2.5038   -0.4570 H   0  0  0  0  0  0  0  0  0  0  0  0
   -1.2928   -2.0511    0.9287 C   0  0  0  0  0  0  0  0  0  0  0  0
   -0.5027   -2.7527    1.5396 O   0  0  0  0  0  0  0  0  0  0  0  0
   -0.9757   -0.7539    0.5846 N   0  0  0  0  0  0  0  0  0  0  0  0
   -1.6985   -0.2326    0.0886 H   0  0  0  0  0  0  0  0  0  0  0  0
    0.3661   -0.1331    0.5541 C   0  0  1  0  0  0  0  0  0  0  0  0
    0.6666    0.0939    1.5808 H   0  0  0  0  0  0  0  0  0  0  0  0
    1.4464   -1.0399   -0.0794 C   0  0  0  0  0  0  0  0  0  0  0  0
    2.4287   -0.5710    0.0350 H   0  0  0  0  0  0  0  0  0  0  0  0
    1.5047   -2.0000    0.4372 H   0  0  0  0  0  0  0  0  0  0  0  0
    1.1909   -1.2568   -1.4722 O   0  0  0  0  0  0  0  0  0  0  0  0
    1.7374   -1.9877   -1.8110 H   0  0  0  0  0  0  0  0  0  0  0  0
    0.3037    1.1983   -0.2339 C   0  0  0  0  0  0  0  0  0  0  0  0
   -0.7829    1.7410   -0.4182 O   0  0  0  0  0  0  0  0  0  0  0  0
    1.4458    1.8398   -0.6842 N   0  0  0  0  0  0  0  0  0  0  0  0
    2.3053    1.3000   -0.6660 H   0  0  0  0  0  0  0  0  0  0  0  0
    1.4054    3.0514   -1.4941 C   0  0  0  0  0  0  0  0  0  0  0  0
    0.8764    3.8504   -0.9638 H   0  0  0  0  0  0  0  0  0  0  0  0
    2.4213    3.3964   -1.7088 H   0  0  0  0  0  0  0  0  0  0  0  0
    0.8948    2.8598   -2.4438 H   0  0  0  0  0  0  0  0  0  0  0  0
  1  2  1  0  0  0  0
  2  3  1  0  0  0  0
  2  4  1  0  0  0  0
  2  5  1  0  0  0  0
  5  6  2  0  0  0  0
  5  7  1  0  0  0  0
  7  8  1  0  0  0  0
  7  9  1  0  0  0  0
  9 10  1  0  0  0  0
  9 11  1  0  0  0  0
  9 16  1  0  0  0  0
 11 12  1  0  0  0  0
 11 13  1  0  0  0  0
 11 14  1  0  0  0  0
 14 15  1  0  0  0  0
 16 17  2  0  0  0  0
 16 18  1  0  0  0  0
 18 19  1  0  0  0  0
 18 20  1  0  0  0  0
 20 21  1  0  0  0  0
 20 22  1  0  0  0  0
 20 23  1  0  0  0  0
M  END
$$$$

  -OEChem-01062216093D

 23 22  0     1  0  0  0  0  0999 V2000
   -2.8027   -3.5943    0.9011 H   0  0  0  0  0  0  0  0  0  0  0  0
   -2.7032   -2.5431    0.6167 C   0  0  0  0  0  0  0  0  0  0  0  0
   -3.4150   -1.9512    1.1972 H   0  0  0  0  0  0  0  0  0  0  0  0
   -2.9370   -2.4431   -0.4461 H   0  0  0  0  0  0  0  0  0  0  0  0
   -1.2902   -2.0593    0.8834 C   0  0  0  0  0  0  0  0  0  0  0  0
   -0.5002   -2.7991    1.4468 O   0  0  0  0  0  0  0  0  0  0  0  0
   -0.9516   -0.7643    0.5497 N   0  0  0  0  0  0  0  0  0  0  0  0
   -1.6887   -0.2030    0.1246 H   0  0  0  0  0  0  0  0  0  0  0  0
    0.3926   -0.1474    0.5368 C   0  0  1  0  0  0  0  0  0  0  0  0
    0.6711    0.0893    1.5673 H   0  0  0  0  0  0  0  0  0  0  0  0
    1.4972   -1.0547   -0.0545 C   0  0  0  0  0  0  0  0  0  0  0  0
    2.4719   -0.5750    0.0809 H   0  0  0  0  0  0  0  0  0  0  0  0
    1.5505   -2.0047    0.4808 H   0  0  0  0  0  0  0  0  0  0  0  0
    1.2858   -1.2988   -1.4505 O   0  0  0  0  0  0  0  0  0  0  0  0
    1.7929   -2.0786   -1.7396 H   0  0  0  0  0  0  0  0  0  0  0  0
    0.3297    1.1846   -0.2502 C   0  0  0  0  0  0  0  0  0  0  0  0
   -0.7099    1.8375   -0.2297 O   0  0  0  0  0  0  0  0  0  0  0  0
    1.4110    1.6869   -0.9542 N   0  0  0  0  0  0  0  0  0  0  0  0
    2.1438    1.0134   -1.1617 H   0  0  0  0  0  0  0  0  0  0  0  0
    1.3236    2.8817   -1.7849 C   0  0  0  0  0  0  0  0  0  0  0  0
    0.9961    3.7410   -1.1899 H   0  0  0  0  0  0  0  0  0  0  0  0
    2.3027    3.1154   -2.2139 H   0  0  0  0  0  0  0  0  0  0  0  0
    0.6122    2.7277   -2.6031 H   0  0  0  0  0  0  0  0  0  0  0  0
  1  2  1  0  0  0  0
  2  3  1  0  0  0  0
  2  4  1  0  0  0  0
  2  5  1  0  0  0  0
  5  6  2  0  0  0  0
  5  7  1  0  0  0  0
  7  8  1  0  0  0  0
  7  9  1  0  0  0  0
  9 10  1  0  0  0  0
  9 11  1  0  0  0  0
  9 16  1  0  0  0  0
 11 12  1  0  0  0  0
 11 13  1  0  0  0  0
 11 14  1  0  0  0  0
 14 15  1  0  0  0  0
 16 17  2  0  0  0  0
 16 18  1  0  0  0  0
 18 19  1  0  0  0  0
 18 20  1  0  0  0  0
 20 21  1  0  0  0  0
 20 22  1  0  0  0  0
 20 23  1  0  0  0  0
M  END
$$$$

  -OEChem-01062216093D

 23 22  0     1  0  0  0  0  0999 V2000
   -2.8309   -3.5668    0.9125 H   0  0  0  0  0  0  0  0  0  0  0  0
   -2.7188   -2.5179    0.6244 C   0  0  0  0  0  0  0  0  0  0  0  0
   -3.4015   -1.9123    1.2253 H   0  0  0  0  0  0  0  0  0  0  0  0
   -2.9819   -2.4137   -0.4310 H   0  0  0  0  0  0  0  0  0  0  0  0
   -1.2890   -2.0628    0.8488 C   0  0  0  0  0  0  0  0  0  0  0  0
   -0.4956   -2.8266    1.3731 O   0  0  0  0  0  0  0  0  0  0  0  0
   -0.9395   -0.7695    0.5180 N   0  0  0  0  0  0  0  0  0  0  0  0
   -1.6881   -0.1845    0.1502 H   0  0  0  0  0  0  0  0  0  0  0  0
    0.4064   -0.1551    0.5126 C   0  0  1  0  0  0  0  0  0  0  0  0
    0.6679    0.0915    1.5456 H   0  0  0  0  0  0  0  0  0  0  0  0
    1.5296   -1.0656   -0.0416 C   0  0  0  0  0  0  0  0  0  0  0  0
    2.4949   -0.5693    0.1020 H   0  0  0  0  0  0  0  0  0  0  0  0
    1.5844   -2.0016    0.5173 H   0  0  0  0  0  0  0  0  0  0  0  0
    1.3572   -1.3459   -1.4375 O   0  0  0  0  0  0  0  0  0  0  0  0
    1.8436   -2.1547   -1.6807 H   0  0  0  0  0  0  0  0  0  0  0  0
    0.3471    1.1755   -0.2754 C   0  0  0  0  0  0  0  0  0  0  0  0
   -0.6012    1.9293   -0.0813 O   0  0  0  0  0  0  0  0  0  0  0  0
    1.3001    1.5377   -1.2107 N   0  0  0  0  0  0  0  0  0  0  0  0
    1.8761    0.7666   -1.5455 H   0  0  0  0  0  0  0  0  0  0  0  0
    1.1705    2.7175   -2.0570 C   0  0  0  0  0  0  0  0  0  0  0  0
    1.0692    3.6204   -1.4455 H   0  0  0  0  0  0  0  0  0  0  0  0
    2.0584    2.8284   -2.6868 H   0  0  0  0  0  0  0  0  0  0  0  0
    0.2921    2.6303   -2.7049 H   0  0  0  0  0  0  0  0  0  0  0  0
  1  2  1  0  0  0  0
  2  3  1  0  0  0  0
  2  4  1  0  0  0  0
  2  5  1  0  0  0  0
  5  6  2  0  0  0  0
  5  7  1  0  0  0  0
  7  8  1  0  0  0  0
  7  9  1  0  0  0  0
  9 10  1  0  0  0  0
  9 11  1  0  0  0  0
  9 16  1  0  0  0  0
 11 12  1  0  0  0  0
 11 13  1  0  0  0  0
 11 14  1  0  0  0  0
 14 15  1  0  0  0  0
 16 17  2  0  0  0  0
 16 18  1  0  0  0  0
 18 19  1  0  0  0  0
 18 20  1  0  0  0  0
 20 21  1  0  0  0  0
 20 22  1  0  0  0  0
 20 23  1  0  0  0  0
M  END
$$$$

  -OEChem-01062216093D

 23 22  0     1  0  0  0  0  0999 V2000
   -2.8425   -3.5523    0.9084 H   0  0  0  0  0  0  0  0  0  0  0  0
   -2.7273   -2.4995    0.6359 C   0  0  0  0  0  0  0  0  0  0  0  0
   -3.3871   -1.8982    1.2659 H   0  0  0  0  0  0  0  0  0  0  0  0
   -3.0177   -2.3737   -0.4098 H   0  0  0  0  0  0  0  0  0  0  0  0
   -1.2873   -2.0627    0.8297 C   0  0  0  0  0  0  0  0  0  0  0  0
   -0.4931   -2.8396    1.3325 O   0  0  0  0  0  0  0  0  0  0  0  0
   -0.9327   -0.7706    0.4970 N   0  0  0  0  0  0  0  0  0  0  0  0
   -1.6879   -0.1773    0.1592 H   0  0  0  0  0  0  0  0  0  0  0  0
    0.4142   -0.1573    0.4889 C   0  0  1  0  0  0  0  0  0  0  0  0
    0.6704    0.0953    1.5220 H   0  0  0  0  0  0  0  0  0  0  0  0
    1.5417   -1.0780   -0.0417 C   0  0  0  0  0  0  0  0  0  0  0  0
    2.5023   -0.5711    0.0971 H   0  0  0  0  0  0  0  0  0  0  0  0
    1.5993   -1.9996    0.5404 H   0  0  0  0  0  0  0  0  0  0  0  0
    1.3897   -1.3931   -1.4343 O   0  0  0  0  0  0  0  0  0  0  0  0
    1.8814   -2.2075   -1.6472 H   0  0  0  0  0  0  0  0  0  0  0  0
    0.3646    1.1723   -0.2991 C   0  0  0  0  0  0  0  0  0  0  0  0
   -0.4580    2.0163    0.0373 O   0  0  0  0  0  0  0  0  0  0  0  0
    1.1261    1.4070   -1.4290 N   0  0  0  0  0  0  0  0  0  0  0  0
    1.5787    0.5769   -1.8143 H   0  0  0  0  0  0  0  0  0  0  0  0
    0.9407    2.5654   -2.2938 C   0  0  0  0  0  0  0  0  0  0  0  0
    1.0196    3.4929   -1.7168 H   0  0  0  0  0  0  0  0  0  0  0  0
    1.7087    2.5812   -3.0730 H   0  0  0  0  0  0  0  0  0  0  0  0
   -0.0428    2.5312   -2.7737 H   0  0  0  0  0  0  0  0  0  0  0  0
  1  2  1  0  0  0  0
  2  3  1  0  0  0  0
  2  4  1  0  0  0  0
  2  5  1  0  0  0  0
  5  6  2  0  0  0  0
  5  7  1  0  0  0  0
  7  8  1  0  0  0  0
  7  9  1  0  0  0  0
  9 10  1  0  0  0  0
  9 11  1  0  0  0  0
  9 16  1  0  0  0  0
 11 12  1  0  0  0  0
 11 13  1  0  0  0  0
 11 14  1  0  0  0  0
 14 15  1  0  0  0  0
 16 17  2  0  0  0  0
 16 18  1  0  0  0  0
 18 19  1  0  0  0  0
 18 20  1  0  0  0  0
 20 21  1  0  0  0  0
 20 22  1  0  0  0  0
 20 23  1  0  0  0  0
M  END
$$$$

  -OEChem-01062216093D

 23 22  0     1  0  0  0  0  0999 V2000
   -2.8331   -3.5581    0.9304 H   0  0  0  0  0  0  0  0  0  0  0  0
   -2.7256   -2.5066    0.6495 C   0  0  0  0  0  0  0  0  0  0  0  0
   -3.3905   -1.9053    1.2743 H   0  0  0  0  0  0  0  0  0  0  0  0
   -3.0159   -2.3918   -0.3976 H   0  0  0  0  0  0  0  0  0  0  0  0
   -1.2888   -2.0578    0.8410 C   0  0  0  0  0  0  0  0  0  0  0  0
   -0.4918   -2.8235    1.3561 O   0  0  0  0  0  0  0  0  0  0  0  0
   -0.9412   -0.7683    0.4900 N   0  0  0  0  0  0  0  0  0  0  0  0
   -1.7009   -0.1881    0.1419 H   0  0  0  0  0  0  0  0  0  0  0  0
    0.4056   -0.1532    0.4648 C   0  0  1  0  0  0  0  0  0  0  0  0
    0.6641    0.1122    1.4945 H   0  0  0  0  0  0  0  0  0  0  0  0
    1.5326   -1.0846   -0.0511 C   0  0  0  0  0  0  0  0  0  0  0  0
    2.4904   -0.5681    0.0716 H   0  0  0  0  0  0  0  0  0  0  0  0
    1.5979   -1.9907    0.5538 H   0  0  0  0  0  0  0  0  0  0  0  0
    1.3847   -1.4360   -1.4365 O   0  0  0  0  0  0  0  0  0  0  0  0
    1.9220   -2.2243   -1.6378 H   0  0  0  0  0  0  0  0  0  0  0  0
    0.3621    1.1681   -0.3351 C   0  0  0  0  0  0  0  0  0  0  0  0
   -0.2749    2.1069    0.1260 O   0  0  0  0  0  0  0  0  0  0  0  0
    0.8738    1.2883   -1.6127 N   0  0  0  0  0  0  0  0  0  0  0  0
    1.2196    0.4198   -2.0246 H   0  0  0  0  0  0  0  0  0  0  0  0
    0.6648    2.4490   -2.4684 C   0  0  0  0  0  0  0  0  0  0  0  0
    1.0047    3.3616   -1.9675 H   0  0  0  0  0  0  0  0  0  0  0  0
    1.2296    2.3379   -3.3990 H   0  0  0  0  0  0  0  0  0  0  0  0
   -0.3964    2.5561   -2.7154 H   0  0  0  0  0  0  0  0  0  0  0  0
  1  2  1  0  0  0  0
  2  3  1  0  0  0  0
  2  4  1  0  0  0  0
  2  5  1  0  0  0  0
  5  6  2  0  0  0  0
  5  7  1  0  0  0  0
  7  8  1  0  0  0  0
  7  9  1  0  0  0  0
  9 10  1  0  0  0  0
  9 11  1  0  0  0  0
  9 16  1  0  0  0  0
 11 12  1  0  0  0  0
 11 13  1  0  0  0  0
 11 14  1  0  0  0  0
 14 15  1  0  0  0  0
 16 17  2  0  0  0  0
 16 18  1  0  0  0  0
 18 19  1  0  0  0  0
 18 20  1  0  0  0  0
 20 21  1  0  0  0  0
 20 22  1  0  0  0  0
 20 23  1  0  0  0  0
M  END
$$$$

  -OEChem-01062216093D

 23 22  0     1  0  0  0  0  0999 V2000
   -2.8071   -3.5906    1.0288 H   0  0  0  0  0  0  0  0  0  0  0  0
   -2.7156   -2.5554    0.6881 C   0  0  0  0  0  0  0  0  0  0  0  0
   -3.4001   -1.9324    1.2688 H   0  0  0  0  0  0  0  0  0  0  0  0
   -2.9947   -2.5071   -0.3671 H   0  0  0  0  0  0  0  0  0  0  0  0
   -1.2902   -2.0682    0.8700 C   0  0  0  0  0  0  0  0  0  0  0  0
   -0.4769   -2.8003    1.4075 O   0  0  0  0  0  0  0  0  0  0  0  0
   -0.9732   -0.7785    0.4912 N   0  0  0  0  0  0  0  0  0  0  0  0
   -1.7426   -0.2339    0.1106 H   0  0  0  0  0  0  0  0  0  0  0  0
    0.3641   -0.1443    0.4407 C   0  0  1  0  0  0  0  0  0  0  0  0
    0.6300    0.1365    1.4645 H   0  0  0  0  0  0  0  0  0  0  0  0
    1.4992   -1.0644   -0.0771 C   0  0  0  0  0  0  0  0  0  0  0  0
    2.4489   -0.5292    0.0270 H   0  0  0  0  0  0  0  0  0  0  0  0
    1.5870   -1.9613    0.5389 H   0  0  0  0  0  0  0  0  0  0  0  0
    1.3437   -1.4389   -1.4559 O   0  0  0  0  0  0  0  0  0  0  0  0
    1.9435   -2.1776   -1.6678 H   0  0  0  0  0  0  0  0  0  0  0  0
    0.3047    1.1629   -0.3789 C   0  0  0  0  0  0  0  0  0  0  0  0
   -0.0863    2.1853    0.1685 O   0  0  0  0  0  0  0  0  0  0  0  0
    0.5231    1.1916   -1.7421 N   0  0  0  0  0  0  0  0  0  0  0  0
    0.8067    0.3052   -2.1638 H   0  0  0  0  0  0  0  0  0  0  0  0
    0.3965    2.3817   -2.5726 C   0  0  0  0  0  0  0  0  0  0  0  0
    1.0722    3.1681   -2.2204 H   0  0  0  0  0  0  0  0  0  0  0  0
    0.6516    2.1462   -3.6103 H   0  0  0  0  0  0  0  0  0  0  0  0
   -0.6305    2.7602   -2.5458 H   0  0  0  0  0  0  0  0  0  0  0  0
  1  2  1  0  0  0  0
  2  3  1  0  0  0  0
  2  4  1  0  0  0  0
  2  5  1  0  0  0  0
  5  6  2  0  0  0  0
  5  7  1  0  0  0  0
  7  8  1  0  0  0  0
  7  9  1  0  0  0  0
  9 10  1  0  0  0  0
  9 11  1  0  0  0  0
  9 16  1  0  0  0  0
 11 12  1  0  0  0  0
 11 13  1  0  0  0  0
 11 14  1  0  0  0  0
 14 15  1  0  0  0  0
 16 17  2  0  0  0  0
 16 18  1  0  0  0  0
 18 19  1  0  0  0  0
 18 20  1  0  0  0  0
 20 21  1  0  0  0  0
 20 22  1  0  0  0  0
 20 23  1  0  0  0  0
M  END
$$$$

  -OEChem-01062216093D

 23 22  0     1  0  0  0  0  0999 V2000
   -2.7476   -3.6445    1.0629 H   0  0  0  0  0  0  0  0  0  0  0  0
   -2.6875   -2.6126    0.7055 C   0  0  0  0  0  0  0  0  0  0  0  0
   -3.4142   -2.0077    1.2532 H   0  0  0  0  0  0  0  0  0  0  0  0
   -2.9350   -2.5950   -0.3586 H   0  0  0  0  0  0  0  0  0  0  0  0
   -1.2891   -2.0643    0.9210 C   0  0  0  0  0  0  0  0  0  0  0  0
   -0.4637   -2.7491    1.5008 O   0  0  0  0  0  0  0  0  0  0  0  0
   -1.0079   -0.7733    0.5195 N   0  0  0  0  0  0  0  0  0  0  0  0
   -1.7772   -0.2798    0.0751 H   0  0  0  0  0  0  0  0  0  0  0  0
    0.3208   -0.1230    0.4432 C   0  0  1  0  0  0  0  0  0  0  0  0
    0.6059    0.1625    1.4607 H   0  0  0  0  0  0  0  0  0  0  0  0
    1.4483   -1.0318   -0.1065 C   0  0  0  0  0  0  0  0  0  0  0  0
    2.3965   -0.4904   -0.0244 H   0  0  0  0  0  0  0  0  0  0  0  0
    1.5578   -1.9325    0.5006 H   0  0  0  0  0  0  0  0  0  0  0  0
    1.2557   -1.3959   -1.4836 O   0  0  0  0  0  0  0  0  0  0  0  0
    1.8892   -2.0938   -1.7329 H   0  0  0  0  0  0  0  0  0  0  0  0
    0.2446    1.1733   -0.3892 C   0  0  0  0  0  0  0  0  0  0  0  0
    0.1456    2.2501    0.1832 O   0  0  0  0  0  0  0  0  0  0  0  0
    0.1457    1.1407   -1.7667 N   0  0  0  0  0  0  0  0  0  0  0  0
    0.3592    0.2365   -2.1914 H   0  0  0  0  0  0  0  0  0  0  0  0
    0.1129    2.3322   -2.6047 C   0  0  0  0  0  0  0  0  0  0  0  0
    1.0472    2.8946   -2.5075 H   0  0  0  0  0  0  0  0  0  0  0  0
   -0.0167    2.0513   -3.6542 H   0  0  0  0  0  0  0  0  0  0  0  0
   -0.7213    2.9810   -2.3176 H   0  0  0  0  0  0  0  0  0  0  0  0
  1  2  1  0  0  0  0
  2  3  1  0  0  0  0
  2  4  1  0  0  0  0
  2  5  1  0  0  0  0
  5  6  2  0  0  0  0
  5  7  1  0  0  0  0
  7  8  1  0  0  0  0
  7  9  1  0  0  0  0
  9 10  1  0  0  0  0
  9 11  1  0  0  0  0
  9 16  1  0  0  0  0
 11 12  1  0  0  0  0
 11 13  1  0  0  0  0
 11 14  1  0  0  0  0
 14 15  1  0  0  0  0
 16 17  2  0  0  0  0
 16 18  1  0  0  0  0
 18 19  1  0  0  0  0
 18 20  1  0  0  0  0
 20 21  1  0  0  0  0
 20 22  1  0  0  0  0
 20 23  1  0  0  0  0
M  END
$$$$

  -OEChem-01062216093D

 23 22  0     1  0  0  0  0  0999 V2000
   -2.7125   -3.6754    1.0698 H   0  0  0  0  0  0  0  0  0  0  0  0
   -2.6758   -2.6384    0.7239 C   0  0  0  0  0  0  0  0  0  0  0  0
   -3.4160   -2.0562    1.2781 H   0  0  0  0  0  0  0  0  0  0  0  0
   -2.9236   -2.6147   -0.3399 H   0  0  0  0  0  0  0  0  0  0  0  0
   -1.2904   -2.0618    0.9473 C   0  0  0  0  0  0  0  0  0  0  0  0
   -0.4583   -2.7235    1.5438 O   0  0  0  0  0  0  0  0  0  0  0  0
   -1.0270   -0.7696    0.5377 N   0  0  0  0  0  0  0  0  0  0  0  0
   -1.7952   -0.2970    0.0695 H   0  0  0  0  0  0  0  0  0  0  0  0
    0.2974   -0.1109    0.4582 C   0  0  1  0  0  0  0  0  0  0  0  0
    0.5965    0.1663    1.4741 H   0  0  0  0  0  0  0  0  0  0  0  0
    1.4108   -1.0084   -0.1314 C   0  0  0  0  0  0  0  0  0  0  0  0
    2.3626   -0.4719   -0.0564 H   0  0  0  0  0  0  0  0  0  0  0  0
    1.5285   -1.9261    0.4482 H   0  0  0  0  0  0  0  0  0  0  0  0
    1.1797   -1.3310   -1.5129 O   0  0  0  0  0  0  0  0  0  0  0  0
    1.8373   -1.9843   -1.8144 H   0  0  0  0  0  0  0  0  0  0  0  0
    0.2217    1.1804   -0.3782 C   0  0  0  0  0  0  0  0  0  0  0  0
    0.3982    2.2653    0.1591 O   0  0  0  0  0  0  0  0  0  0  0  0
   -0.1772    1.1380   -1.7008 N   0  0  0  0  0  0  0  0  0  0  0  0
   -0.0845    0.2180   -2.1332 H   0  0  0  0  0  0  0  0  0  0  0  0
   -0.1947    2.3146   -2.5604 C   0  0  0  0  0  0  0  0  0  0  0  0
    0.8119    2.7350   -2.6552 H   0  0  0  0  0  0  0  0  0  0  0  0
   -0.5558    2.0470   -3.5581 H   0  0  0  0  0  0  0  0  0  0  0  0
   -0.8594    3.0813   -2.1486 H   0  0  0  0  0  0  0  0  0  0  0  0
  1  2  1  0  0  0  0
  2  3  1  0  0  0  0
  2  4  1  0  0  0  0
  2  5  1  0  0  0  0
  5  6  2  0  0  0  0
  5  7  1  0  0  0  0
  7  8  1  0  0  0  0
  7  9  1  0  0  0  0
  9 10  1  0  0  0  0
  9 11  1  0  0  0  0
  9 16  1  0  0  0  0
 11 12  1  0  0  0  0
 11 13  1  0  0  0  0
 11 14  1  0  0  0  0
 14 15  1  0  0  0  0
 16 17  2  0  0  0  0
 16 18  1  0  0  0  0
 18 19  1  0  0  0  0
 18 20  1  0  0  0  0
 20 21  1  0  0  0  0
 20 22  1  0  0  0  0
 20 23  1  0  0  0  0
M  END
$$$$

  -OEChem-01062216093D

 23 22  0     1  0  0  0  0  0999 V2000
   -2.6953   -3.6968    1.0956 H   0  0  0  0  0  0  0  0  0  0  0  0
   -2.6686   -2.6633    0.7384 C   0  0  0  0  0  0  0  0  0  0  0  0
   -3.4211   -2.0847    1.2795 H   0  0  0  0  0  0  0  0  0  0  0  0
   -2.9071   -2.6548   -0.3278 H   0  0  0  0  0  0  0  0  0  0  0  0
   -1.2925   -2.0661    0.9668 C   0  0  0  0  0  0  0  0  0  0  0  0
   -0.4550   -2.7109    1.5743 O   0  0  0  0  0  0  0  0  0  0  0  0
   -1.0425   -0.7730    0.5513 N   0  0  0  0  0  0  0  0  0  0  0  0
   -1.8131   -0.3101    0.0776 H   0  0  0  0  0  0  0  0  0  0  0  0
    0.2778   -0.1031    0.4776 C   0  0  1  0  0  0  0  0  0  0  0  0
    0.5842    0.1661    1.4932 H   0  0  0  0  0  0  0  0  0  0  0  0
    1.3798   -0.9880   -0.1450 C   0  0  0  0  0  0  0  0  0  0  0  0
    2.3345   -0.4564   -0.0722 H   0  0  0  0  0  0  0  0  0  0  0  0
    1.5018   -1.9223    0.4070 H   0  0  0  0  0  0  0  0  0  0  0  0
    1.1160   -1.2675   -1.5299 O   0  0  0  0  0  0  0  0  0  0  0  0
    1.7925   -1.8750   -1.8806 H   0  0  0  0  0  0  0  0  0  0  0  0
    0.2118    1.1845   -0.3629 C   0  0  0  0  0  0  0  0  0  0  0  0
    0.6469    2.2347    0.0900 O   0  0  0  0  0  0  0  0  0  0  0  0
   -0.4555    1.1861   -1.5746 N   0  0  0  0  0  0  0  0  0  0  0  0
   -0.5214    0.2652   -2.0062 H   0  0  0  0  0  0  0  0  0  0  0  0
   -0.4847    2.3544   -2.4455 C   0  0  0  0  0  0  0  0  0  0  0  0
    0.5276    2.6125   -2.7740 H   0  0  0  0  0  0  0  0  0  0  0  0
   -1.0972    2.1510   -3.3291 H   0  0  0  0  0  0  0  0  0  0  0  0
   -0.9145    3.2146   -1.9212 H   0  0  0  0  0  0  0  0  0  0  0  0
  1  2  1  0  0  0  0
  2  3  1  0  0  0  0
  2  4  1  0  0  0  0
  2  5  1  0  0  0  0
  5  6  2  0  0  0  0
  5  7  1  0  0  0  0
  7  8  1  0  0  0  0
  7  9  1  0  0  0  0
  9 10  1  0  0  0  0
  9 11  1  0  0  0  0
  9 16  1  0  0  0  0
 11 12  1  0  0  0  0
 11 13  1  0  0  0  0
 11 14  1  0  0  0  0
 14 15  1  0  0  0  0
 16 17  2  0  0  0  0
 16 18  1  0  0  0  0
 18 19  1  0  0  0  0
 18 20  1  0  0  0  0
 20 21  1  0  0  0  0
 20 22  1  0  0  0  0
 20 23  1  0  0  0  0
M  END
$$$$

  -OEChem-01062216093D

 23 22  0     1  0  0  0  0  0999 V2000
   -2.6875   -3.7182    1.1185 H   0  0  0  0  0  0  0  0  0  0  0  0
   -2.6708   -2.6834    0.7645 C   0  0  0  0  0  0  0  0  0  0  0  0
   -3.4153   -2.1092    1.3212 H   0  0  0  0  0  0  0  0  0  0  0  0
   -2.9284   -2.6724   -0.2972 H   0  0  0  0  0  0  0  0  0  0  0  0
   -1.2923   -2.0836    0.9705 C   0  0  0  0  0  0  0  0  0  0  0  0
   -0.4457   -2.7275    1.5657 O   0  0  0  0  0  0  0  0  0  0  0  0
   -1.0510   -0.7897    0.5511 N   0  0  0  0  0  0  0  0  0  0  0  0
   -1.8379   -0.3130    0.1210 H   0  0  0  0  0  0  0  0  0  0  0  0
    0.2626   -0.1031    0.4864 C   0  0  1  0  0  0  0  0  0  0  0  0
    0.5676    0.1638    1.5030 H   0  0  0  0  0  0  0  0  0  0  0  0
    1.3650   -0.9746   -0.1510 C   0  0  0  0  0  0  0  0  0  0  0  0
    2.3192   -0.4419   -0.0774 H   0  0  0  0  0  0  0  0  0  0  0  0
    1.4936   -1.9175    0.3844 H   0  0  0  0  0  0  0  0  0  0  0  0
    1.0849   -1.2290   -1.5371 O   0  0  0  0  0  0  0  0  0  0  0  0
    1.7716   -1.8075   -1.9147 H   0  0  0  0  0  0  0  0  0  0  0  0
    0.2076    1.1828   -0.3585 C   0  0  0  0  0  0  0  0  0  0  0  0
    0.8551    2.1643   -0.0187 O   0  0  0  0  0  0  0  0  0  0  0  0
   -0.6823    1.2816   -1.4145 N   0  0  0  0  0  0  0  0  0  0  0  0
   -0.9366    0.3859   -1.8241 H   0  0  0  0  0  0  0  0  0  0  0  0
   -0.7354    2.4594   -2.2719 C   0  0  0  0  0  0  0  0  0  0  0  0
    0.2213    2.6036   -2.7848 H   0  0  0  0  0  0  0  0  0  0  0  0
   -1.5208    2.3428   -3.0248 H   0  0  0  0  0  0  0  0  0  0  0  0
   -0.9566    3.3550   -1.6817 H   0  0  0  0  0  0  0  0  0  0  0  0
  1  2  1  0  0  0  0
  2  3  1  0  0  0  0
  2  4  1  0  0  0  0
  2  5  1  0  0  0  0
  5  6  2  0  0  0  0
  5  7  1  0  0  0  0
  7  8  1  0  0  0  0
  7  9  1  0  0  0  0
  9 10  1  0  0  0  0
  9 11  1  0  0  0  0
  9 16  1  0  0  0  0
 11 12  1  0  0  0  0
 11 13  1  0  0  0  0
 11 14  1  0  0  0  0
 14 15  1  0  0  0  0
 16 17  2  0  0  0  0
 16 18  1  0  0  0  0
 18 19  1  0  0  0  0
 18 20  1  0  0  0  0
 20 21  1  0  0  0  0
 20 22  1  0  0  0  0
 20 23  1  0  0  0  0
M  END
$$$$

  -OEChem-01062216093D

 23 22  0     1  0  0  0  0  0999 V2000
   -2.6847   -3.7367    1.1541 H   0  0  0  0  0  0  0  0  0  0  0  0
   -2.6713   -2.7047    0.7917 C   0  0  0  0  0  0  0  0  0  0  0  0
   -3.4034   -2.1237    1.3576 H   0  0  0  0  0  0  0  0  0  0  0  0
   -2.9487   -2.7008   -0.2651 H   0  0  0  0  0  0  0  0  0  0  0  0
   -1.2872   -2.1080    0.9668 C   0  0  0  0  0  0  0  0  0  0  0  0
   -0.4320   -2.7504    1.5510 O   0  0  0  0  0  0  0  0  0  0  0  0
   -1.0566   -0.8132    0.5433 N   0  0  0  0  0  0  0  0  0  0  0  0
   -1.8627   -0.3238    0.1685 H   0  0  0  0  0  0  0  0  0  0  0  0
    0.2489   -0.1079    0.4841 C   0  0  1  0  0  0  0  0  0  0  0  0
    0.5475    0.1624    1.5017 H   0  0  0  0  0  0  0  0  0  0  0  0
    1.3592   -0.9710   -0.1527 C   0  0  0  0  0  0  0  0  0  0  0  0
    2.3105   -0.4328   -0.0797 H   0  0  0  0  0  0  0  0  0  0  0  0
    1.4957   -1.9139    0.3803 H   0  0  0  0  0  0  0  0  0  0  0  0
    1.0765   -1.2234   -1.5384 O   0  0  0  0  0  0  0  0  0  0  0  0
    1.7766   -1.7782   -1.9261 H   0  0  0  0  0  0  0  0  0  0  0  0
    0.2015    1.1779   -0.3651 C   0  0  0  0  0  0  0  0  0  0  0  0
    1.0088    2.0733   -0.1513 O   0  0  0  0  0  0  0  0  0  0  0  0
   -0.8572    1.4150   -1.2272 N   0  0  0  0  0  0  0  0  0  0  0  0
   -1.2990    0.5757   -1.5901 H   0  0  0  0  0  0  0  0  0  0  0  0
   -0.9306    2.6219   -2.0427 C   0  0  0  0  0  0  0  0  0  0  0  0
   -0.0789    2.6729   -2.7293 H   0  0  0  0  0  0  0  0  0  0  0  0
   -1.8532    2.6250   -2.6309 H   0  0  0  0  0  0  0  0  0  0  0  0
   -0.9256    3.5154   -1.4093 H   0  0  0  0  0  0  0  0  0  0  0  0
  1  2  1  0  0  0  0
  2  3  1  0  0  0  0
  2  4  1  0  0  0  0
  2  5  1  0  0  0  0
  5  6  2  0  0  0  0
  5  7  1  0  0  0  0
  7  8  1  0  0  0  0
  7  9  1  0  0  0  0
  9 10  1  0  0  0  0
  9 11  1  0  0  0  0
  9 16  1  0  0  0  0
 11 12  1  0  0  0  0
 11 13  1  0  0  0  0
 11 14  1  0  0  0  0
 14 15  1  0  0  0  0
 16 17  2  0  0  0  0
 16 18  1  0  0  0  0
 18 19  1  0  0  0  0
 18 20  1  0  0  0  0
 20 21  1  0  0  0  0
 20 22  1  0  0  0  0
 20 23  1  0  0  0  0
M  END
$$$$

  -OEChem-01062216093D

 23 22  0     1  0  0  0  0  0999 V2000
   -2.4993   -3.7896    1.2212 H   0  0  0  0  0  0  0  0  0  0  0  0
   -2.5016   -2.8214    0.7123 C   0  0  0  0  0  0  0  0  0  0  0  0
   -3.4153   -2.2858    0.9808 H   0  0  0  0  0  0  0  0  0  0  0  0
   -2.4884   -2.9924   -0.3668 H   0  0  0  0  0  0  0  0  0  0  0  0
   -1.2845   -2.0138    1.1222 C   0  0  0  0  0  0  0  0  0  0  0  0
   -0.5056   -2.4689    1.9431 O   0  0  0  0  0  0  0  0  0  0  0  0
   -1.1194   -0.7334    0.6309 N   0  0  0  0  0  0  0  0  0  0  0  0
   -1.7747   -0.5322   -0.1149 H   0  0  0  0  0  0  0  0  0  0  0  0
    0.2080   -0.0830    0.4828 C   0  0  1  0  0  0  0  0  0  0  0  0
    0.5640    0.2059    1.4764 H   0  0  0  0  0  0  0  0  0  0  0  0
    1.2357   -1.0464   -0.1560 C   0  0  0  0  0  0  0  0  0  0  0  0
    2.2212   -0.5681   -0.1594 H   0  0  0  0  0  0  0  0  0  0  0  0
    1.3431   -1.9689    0.4193 H   0  0  0  0  0  0  0  0  0  0  0  0
    0.8604   -1.3513   -1.5079 O   0  0  0  0  0  0  0  0  0  0  0  0
    1.5607   -1.8706   -1.9412 H   0  0  0  0  0  0  0  0  0  0  0  0
    0.2009    1.1860   -0.4014 C   0  0  0  0  0  0  0  0  0  0  0  0
    1.2261    1.8422   -0.5406 O   0  0  0  0  0  0  0  0  0  0  0  0
   -0.9616    1.6557   -0.9937 N   0  0  0  0  0  0  0  0  0  0  0  0
   -1.8315    1.2017   -0.7460 H   0  0  0  0  0  0  0  0  0  0  0  0
   -1.0150    2.8899   -1.7688 C   0  0  0  0  0  0  0  0  0  0  0  0
   -0.3272    2.8373   -2.6195 H   0  0  0  0  0  0  0  0  0  0  0  0
   -2.0264    3.0516   -2.1539 H   0  0  0  0  0  0  0  0  0  0  0  0
   -0.7399    3.7473   -1.1455 H   0  0  0  0  0  0  0  0  0  0  0  0
  1  2  1  0  0  0  0
  2  3  1  0  0  0  0
  2  4  1  0  0  0  0
  2  5  1  0  0  0  0
  5  6  2  0  0  0  0
  5  7  1  0  0  0  0
  7  8  1  0  0  0  0
  7  9  1  0  0  0  0
  9 10  1  0  0  0  0
  9 11  1  0  0  0  0
  9 16  1  0  0  0  0
 11 12  1  0  0  0  0
 11 13  1  0  0  0  0
 11 14  1  0  0  0  0
 14 15  1  0  0  0  0
 16 17  2  0  0  0  0
 16 18  1  0  0  0  0
 18 19  1  0  0  0  0
 18 20  1  0  0  0  0
 20 21  1  0  0  0  0
 20 22  1  0  0  0  0
 20 23  1  0  0  0  0
M  END
$$$$

  -OEChem-01062216093D

 23 22  0     1  0  0  0  0  0999 V2000
   -2.4726   -3.7881    1.1659 H   0  0  0  0  0  0  0  0  0  0  0  0
   -2.4866   -2.8093    0.6780 C   0  0  0  0  0  0  0  0  0  0  0  0
   -3.4108   -2.2938    0.9496 H   0  0  0  0  0  0  0  0  0  0  0  0
   -2.4616   -2.9571   -0.4045 H   0  0  0  0  0  0  0  0  0  0  0  0
   -1.2867   -1.9914    1.1167 C   0  0  0  0  0  0  0  0  0  0  0  0
   -0.5311   -2.4315    1.9671 O   0  0  0  0  0  0  0  0  0  0  0  0
   -1.1124   -0.7139    0.6217 N   0  0  0  0  0  0  0  0  0  0  0  0
   -1.7463   -0.5240   -0.1483 H   0  0  0  0  0  0  0  0  0  0  0  0
    0.2216   -0.0788    0.4724 C   0  0  1  0  0  0  0  0  0  0  0  0
    0.5800    0.2186    1.4625 H   0  0  0  0  0  0  0  0  0  0  0  0
    1.2395   -1.0632   -0.1509 C   0  0  0  0  0  0  0  0  0  0  0  0
    2.2304   -0.5968   -0.1567 H   0  0  0  0  0  0  0  0  0  0  0  0
    1.3342   -1.9795    0.4366 H   0  0  0  0  0  0  0  0  0  0  0  0
    0.8634   -1.3792   -1.4999 O   0  0  0  0  0  0  0  0  0  0  0  0
    1.5731   -1.8812   -1.9378 H   0  0  0  0  0  0  0  0  0  0  0  0
    0.1932    1.1842   -0.4202 C   0  0  0  0  0  0  0  0  0  0  0  0
    1.2281    1.7281   -0.7871 O   0  0  0  0  0  0  0  0  0  0  0  0
   -1.0143    1.7912   -0.7286 N   0  0  0  0  0  0  0  0  0  0  0  0
   -1.8263    1.4719   -0.2114 H   0  0  0  0  0  0  0  0  0  0  0  0
   -1.1025    3.0572   -1.4472 C   0  0  0  0  0  0  0  0  0  0  0  0
   -0.6223    2.9748   -2.4281 H   0  0  0  0  0  0  0  0  0  0  0  0
   -2.1502    3.3331   -1.6002 H   0  0  0  0  0  0  0  0  0  0  0  0
   -0.6119    3.8556   -0.8806 H   0  0  0  0  0  0  0  0  0  0  0  0
  1  2  1  0  0  0  0
  2  3  1  0  0  0  0
  2  4  1  0  0  0  0
  2  5  1  0  0  0  0
  5  6  2  0  0  0  0
  5  7  1  0  0  0  0
  7  8  1  0  0  0  0
  7  9  1  0  0  0  0
  9 10  1  0  0  0  0
  9 11  1  0  0  0  0
  9 16  1  0  0  0  0
 11 12  1  0  0  0  0
 11 13  1  0  0  0  0
 11 14  1  0  0  0  0
 14 15  1  0  0  0  0
 16 17  2  0  0  0  0
 16 18  1  0  0  0  0
 18 19  1  0  0  0  0
 18 20  1  0  0  0  0
 20 21  1  0  0  0  0
 20 22  1  0  0  0  0
 20 23  1  0  0  0  0
M  END
$$$$

  -OEChem-01062216093D

 23 22  0     1  0  0  0  0  0999 V2000
   -2.4898   -3.7715    1.1652 H   0  0  0  0  0  0  0  0  0  0  0  0
   -2.4908   -2.7984    0.6658 C   0  0  0  0  0  0  0  0  0  0  0  0
   -3.4128   -2.2714    0.9225 H   0  0  0  0  0  0  0  0  0  0  0  0
   -2.4572   -2.9589   -0.4147 H   0  0  0  0  0  0  0  0  0  0  0  0
   -1.2870   -1.9865    1.1052 C   0  0  0  0  0  0  0  0  0  0  0  0
   -0.5350   -2.4295    1.9574 O   0  0  0  0  0  0  0  0  0  0  0  0
   -1.1063   -0.7093    0.6125 N   0  0  0  0  0  0  0  0  0  0  0  0
   -1.7498   -0.5018   -0.1460 H   0  0  0  0  0  0  0  0  0  0  0  0
    0.2278   -0.0765    0.4591 C   0  0  1  0  0  0  0  0  0  0  0  0
    0.5870    0.2276    1.4467 H   0  0  0  0  0  0  0  0  0  0  0  0
    1.2460   -1.0694   -0.1522 C   0  0  0  0  0  0  0  0  0  0  0  0
    2.2362   -0.6017   -0.1621 H   0  0  0  0  0  0  0  0  0  0  0  0
    1.3418   -1.9786    0.4459 H   0  0  0  0  0  0  0  0  0  0  0  0
    0.8741   -1.4020   -1.4983 O   0  0  0  0  0  0  0  0  0  0  0  0
    1.5959   -1.8850   -1.9375 H   0  0  0  0  0  0  0  0  0  0  0  0
    0.1773    1.1853   -0.4344 C   0  0  0  0  0  0  0  0  0  0  0  0
    1.1700    1.6316   -0.9974 O   0  0  0  0  0  0  0  0  0  0  0  0
   -0.9847    1.9396   -0.4631 N   0  0  0  0  0  0  0  0  0  0  0  0
   -1.7138    1.6734    0.1916 H   0  0  0  0  0  0  0  0  0  0  0  0
   -1.0750    3.2376   -1.1216 C   0  0  0  0  0  0  0  0  0  0  0  0
   -0.8262    3.1457   -2.1842 H   0  0  0  0  0  0  0  0  0  0  0  0
   -2.0916    3.6339   -1.0399 H   0  0  0  0  0  0  0  0  0  0  0  0
   -0.3857    3.9516   -0.6588 H   0  0  0  0  0  0  0  0  0  0  0  0
  1  2  1  0  0  0  0
  2  3  1  0  0  0  0
  2  4  1  0  0  0  0
  2  5  1  0  0  0  0
  5  6  2  0  0  0  0
  5  7  1  0  0  0  0
  7  8  1  0  0  0  0
  7  9  1  0  0  0  0
  9 10  1  0  0  0  0
  9 11  1  0  0  0  0
  9 16  1  0  0  0  0
 11 12  1  0  0  0  0
 11 13  1  0  0  0  0
 11 14  1  0  0  0  0
 14 15  1  0  0  0  0
 16 17  2  0  0  0  0
 16 18  1  0  0  0  0
 18 19  1  0  0  0  0
 18 20  1  0  0  0  0
 20 21  1  0  0  0  0
 20 22  1  0  0  0  0
 20 23  1  0  0  0  0
M  END
$$$$

  -OEChem-01062216093D

 23 22  0     1  0  0  0  0  0999 V2000
   -2.4871   -3.7765    1.1259 H   0  0  0  0  0  0  0  0  0  0  0  0
   -2.5059   -2.7843    0.6662 C   0  0  0  0  0  0  0  0  0  0  0  0
   -3.4163   -2.2678    0.9794 H   0  0  0  0  0  0  0  0  0  0  0  0
   -2.5149   -2.9016   -0.4203 H   0  0  0  0  0  0  0  0  0  0  0  0
   -1.2850   -1.9903    1.0906 C   0  0  0  0  0  0  0  0  0  0  0  0
   -0.5300   -2.4433    1.9350 O   0  0  0  0  0  0  0  0  0  0  0  0
   -1.0998   -0.7113    0.6047 N   0  0  0  0  0  0  0  0  0  0  0  0
   -1.7585   -0.4828   -0.1347 H   0  0  0  0  0  0  0  0  0  0  0  0
    0.2308   -0.0744    0.4475 C   0  0  1  0  0  0  0  0  0  0  0  0
    0.5894    0.2330    1.4341 H   0  0  0  0  0  0  0  0  0  0  0  0
    1.2556   -1.0690   -0.1520 C   0  0  0  0  0  0  0  0  0  0  0  0
    2.2409   -0.5911   -0.1656 H   0  0  0  0  0  0  0  0  0  0  0  0
    1.3589   -1.9697    0.4574 H   0  0  0  0  0  0  0  0  0  0  0  0
    0.8929   -1.4218   -1.4956 O   0  0  0  0  0  0  0  0  0  0  0  0
    1.6299   -1.8801   -1.9353 H   0  0  0  0  0  0  0  0  0  0  0  0
    0.1590    1.1904   -0.4412 C   0  0  0  0  0  0  0  0  0  0  0  0
    1.0623    1.5406   -1.1915 O   0  0  0  0  0  0  0  0  0  0  0  0
   -0.8735    2.0844   -0.2122 N   0  0  0  0  0  0  0  0  0  0  0  0
   -1.5132    1.8600    0.5444 H   0  0  0  0  0  0  0  0  0  0  0  0
   -0.9471    3.4038   -0.8291 C   0  0  0  0  0  0  0  0  0  0  0  0
   -0.9300    3.3181   -1.9208 H   0  0  0  0  0  0  0  0  0  0  0  0
   -1.8748    3.9063   -0.5386 H   0  0  0  0  0  0  0  0  0  0  0  0
   -0.1021    4.0236   -0.5112 H   0  0  0  0  0  0  0  0  0  0  0  0
  1  2  1  0  0  0  0
  2  3  1  0  0  0  0
  2  4  1  0  0  0  0
  2  5  1  0  0  0  0
  5  6  2  0  0  0  0
  5  7  1  0  0  0  0
  7  8  1  0  0  0  0
  7  9  1  0  0  0  0
  9 10  1  0  0  0  0
  9 11  1  0  0  0  0
  9 16  1  0  0  0  0
 11 12  1  0  0  0  0
 11 13  1  0  0  0  0
 11 14  1  0  0  0  0
 14 15  1  0  0  0  0
 16 17  2  0  0  0  0
 16 18  1  0  0  0  0
 18 19  1  0  0  0  0
 18 20  1  0  0  0  0
 20 21  1  0  0  0  0
 20 22  1  0  0  0  0
 20 23  1  0  0  0  0
M  END
$$$$

  -OEChem-01062216093D

 23 22  0     1  0  0  0  0  0999 V2000
   -2.4980   -3.7722    1.1209 H   0  0  0  0  0  0  0  0  0  0  0  0
   -2.5076   -2.7830    0.6547 C   0  0  0  0  0  0  0  0  0  0  0  0
   -3.4172   -2.2589    0.9574 H   0  0  0  0  0  0  0  0  0  0  0  0
   -2.5085   -2.9070   -0.4311 H   0  0  0  0  0  0  0  0  0  0  0  0
   -1.2851   -1.9936    1.0825 C   0  0  0  0  0  0  0  0  0  0  0  0
   -0.5280   -2.4544    1.9211 O   0  0  0  0  0  0  0  0  0  0  0  0
   -1.1022   -0.7086    0.6116 N   0  0  0  0  0  0  0  0  0  0  0  0
   -1.7751   -0.4635   -0.1098 H   0  0  0  0  0  0  0  0  0  0  0  0
    0.2257   -0.0713    0.4423 C   0  0  1  0  0  0  0  0  0  0  0  0
    0.5901    0.2302    1.4286 H   0  0  0  0  0  0  0  0  0  0  0  0
    1.2532   -1.0680   -0.1530 C   0  0  0  0  0  0  0  0  0  0  0  0
    2.2326   -0.5789   -0.1768 H   0  0  0  0  0  0  0  0  0  0  0  0
    1.3688   -1.9595    0.4675 H   0  0  0  0  0  0  0  0  0  0  0  0
    0.8976   -1.4435   -1.4917 O   0  0  0  0  0  0  0  0  0  0  0  0
    1.6476   -1.8773   -1.9337 H   0  0  0  0  0  0  0  0  0  0  0  0
    0.1385    1.2061   -0.4285 C   0  0  0  0  0  0  0  0  0  0  0  0
    0.8790    1.4507   -1.3730 O   0  0  0  0  0  0  0  0  0  0  0  0
   -0.6756    2.2293    0.0263 N   0  0  0  0  0  0  0  0  0  0  0  0
   -1.1991    2.0584    0.8805 H   0  0  0  0  0  0  0  0  0  0  0  0
   -0.7292    3.5531   -0.5836 C   0  0  0  0  0  0  0  0  0  0  0  0
   -1.0044    3.4780   -1.6409 H   0  0  0  0  0  0  0  0  0  0  0  0
   -1.4753    4.1726   -0.0770 H   0  0  0  0  0  0  0  0  0  0  0  0
    0.2437    4.0501   -0.5070 H   0  0  0  0  0  0  0  0  0  0  0  0
  1  2  1  0  0  0  0
  2  3  1  0  0  0  0
  2  4  1  0  0  0  0
  2  5  1  0  0  0  0
  5  6  2  0  0  0  0
  5  7  1  0  0  0  0
  7  8  1  0  0  0  0
  7  9  1  0  0  0  0
  9 10  1  0  0  0  0
  9 11  1  0  0  0  0
  9 16  1  0  0  0  0
 11 12  1  0  0  0  0
 11 13  1  0  0  0  0
 11 14  1  0  0  0  0
 14 15  1  0  0  0  0
 16 17  2  0  0  0  0
 16 18  1  0  0  0  0
 18 19  1  0  0  0  0
 18 20  1  0  0  0  0
 20 21  1  0  0  0  0
 20 22  1  0  0  0  0
 20 23  1  0  0  0  0
M  END
$$$$

  -OEChem-01062216093D

 23 22  0     1  0  0  0  0  0999 V2000
   -2.5113   -3.7694    1.0644 H   0  0  0  0  0  0  0  0  0  0  0  0
   -2.5241   -2.7643    0.6335 C   0  0  0  0  0  0  0  0  0  0  0  0
   -3.4224   -2.2450    0.9759 H   0  0  0  0  0  0  0  0  0  0  0  0
   -2.5514   -2.8501   -0.4557 H   0  0  0  0  0  0  0  0  0  0  0  0
   -1.2858   -1.9986    1.0595 C   0  0  0  0  0  0  0  0  0  0  0  0
   -0.5249   -2.4845    1.8806 O   0  0  0  0  0  0  0  0  0  0  0  0
   -1.0977   -0.7044    0.6173 N   0  0  0  0  0  0  0  0  0  0  0  0
   -1.7779   -0.4361   -0.0890 H   0  0  0  0  0  0  0  0  0  0  0  0
    0.2305   -0.0717    0.4445 C   0  0  1  0  0  0  0  0  0  0  0  0
    0.5954    0.2134    1.4354 H   0  0  0  0  0  0  0  0  0  0  0  0
    1.2691   -1.0613   -0.1462 C   0  0  0  0  0  0  0  0  0  0  0  0
    2.2415   -0.5585   -0.1670 H   0  0  0  0  0  0  0  0  0  0  0  0
    1.3929   -1.9463    0.4821 H   0  0  0  0  0  0  0  0  0  0  0  0
    0.9387   -1.4557   -1.4848 O   0  0  0  0  0  0  0  0  0  0  0  0
    1.6861   -1.9173   -1.9014 H   0  0  0  0  0  0  0  0  0  0  0  0
    0.1398    1.2273   -0.3942 C   0  0  0  0  0  0  0  0  0  0  0  0
    0.5857    1.3659   -1.5254 O   0  0  0  0  0  0  0  0  0  0  0  0
   -0.3848    2.3482    0.2262 N   0  0  0  0  0  0  0  0  0  0  0  0
   -0.7338    2.2354    1.1739 H   0  0  0  0  0  0  0  0  0  0  0  0
   -0.4649    3.6606   -0.4051 C   0  0  0  0  0  0  0  0  0  0  0  0
   -1.0603    3.6094   -1.3228 H   0  0  0  0  0  0  0  0  0  0  0  0
   -0.9372    4.3780    0.2730 H   0  0  0  0  0  0  0  0  0  0  0  0
    0.5363    4.0281   -0.6542 H   0  0  0  0  0  0  0  0  0  0  0  0
  1  2  1  0  0  0  0
  2  3  1  0  0  0  0
  2  4  1  0  0  0  0
  2  5  1  0  0  0  0
  5  6  2  0  0  0  0
  5  7  1  0  0  0  0
  7  8  1  0  0  0  0
  7  9  1  0  0  0  0
  9 10  1  0  0  0  0
  9 11  1  0  0  0  0
  9 16  1  0  0  0  0
 11 12  1  0  0  0  0
 11 13  1  0  0  0  0
 11 14  1  0  0  0  0
 14 15  1  0  0  0  0
 16 17  2  0  0  0  0
 16 18  1  0  0  0  0
 18 19  1  0  0  0  0
 18 20  1  0  0  0  0
 20 21  1  0  0  0  0
 20 22  1  0  0  0  0
 20 23  1  0  0  0  0
M  END
$$$$

  -OEChem-01062216093D

 23 22  0     1  0  0  0  0  0999 V2000
   -2.5745   -3.7153    1.0001 H   0  0  0  0  0  0  0  0  0  0  0  0
   -2.5547   -2.7041    0.5841 C   0  0  0  0  0  0  0  0  0  0  0  0
   -3.4393   -2.1632    0.9284 H   0  0  0  0  0  0  0  0  0  0  0  0
   -2.5777   -2.7727   -0.5063 H   0  0  0  0  0  0  0  0  0  0  0  0
   -1.2977   -1.9811    1.0292 C   0  0  0  0  0  0  0  0  0  0  0  0
   -0.5443   -2.5104    1.8307 O   0  0  0  0  0  0  0  0  0  0  0  0
   -1.0753   -0.6830    0.6176 N   0  0  0  0  0  0  0  0  0  0  0  0
   -1.7415   -0.3768   -0.0879 H   0  0  0  0  0  0  0  0  0  0  0  0
    0.2680   -0.0847    0.4650 C   0  0  1  0  0  0  0  0  0  0  0  0
    0.6216    0.1731    1.4674 H   0  0  0  0  0  0  0  0  0  0  0  0
    1.3171   -1.0625   -0.1236 C   0  0  0  0  0  0  0  0  0  0  0  0
    2.2908   -0.5623   -0.1107 H   0  0  0  0  0  0  0  0  0  0  0  0
    1.4196   -1.9575    0.4943 H   0  0  0  0  0  0  0  0  0  0  0  0
    1.0267   -1.4407   -1.4737 O   0  0  0  0  0  0  0  0  0  0  0  0
    1.7424   -1.9839   -1.8445 H   0  0  0  0  0  0  0  0  0  0  0  0
    0.2024    1.2317   -0.3453 C   0  0  0  0  0  0  0  0  0  0  0  0
    0.1231    1.2755   -1.5653 O   0  0  0  0  0  0  0  0  0  0  0  0
    0.0144    2.4158    0.3476 N   0  0  0  0  0  0  0  0  0  0  0  0
   -0.0381    2.3610    1.3606 H   0  0  0  0  0  0  0  0  0  0  0  0
   -0.2079    3.7040   -0.2999 C   0  0  0  0  0  0  0  0  0  0  0  0
   -1.1446    3.6918   -0.8670 H   0  0  0  0  0  0  0  0  0  0  0  0
   -0.2670    4.4991    0.4495 H   0  0  0  0  0  0  0  0  0  0  0  0
    0.6151    3.9371   -0.9839 H   0  0  0  0  0  0  0  0  0  0  0  0
  1  2  1  0  0  0  0
  2  3  1  0  0  0  0
  2  4  1  0  0  0  0
  2  5  1  0  0  0  0
  5  6  2  0  0  0  0
  5  7  1  0  0  0  0
  7  8  1  0  0  0  0
  7  9  1  0  0  0  0
  9 10  1  0  0  0  0
  9 11  1  0  0  0  0
  9 16  1  0  0  0  0
 11 12  1  0  0  0  0
 11 13  1  0  0  0  0
 11 14  1  0  0  0  0
 14 15  1  0  0  0  0
 16 17  2  0  0  0  0
 16 18  1  0  0  0  0
 18 19  1  0  0  0  0
 18 20  1  0  0  0  0
 20 21  1  0  0  0  0
 20 22  1  0  0  0  0
 20 23  1  0  0  0  0
M  END
$$$$

  -OEChem-01062216093D

 23 22  0     1  0  0  0  0  0999 V2000
   -2.6195   -3.6771    0.9755 H   0  0  0  0  0  0  0  0  0  0  0  0
   -2.5828   -2.6610    0.5727 C   0  0  0  0  0  0  0  0  0  0  0  0
   -3.4526   -2.1066    0.9331 H   0  0  0  0  0  0  0  0  0  0  0  0
   -2.6181   -2.7139   -0.5183 H   0  0  0  0  0  0  0  0  0  0  0  0
   -1.3069   -1.9697    1.0146 C   0  0  0  0  0  0  0  0  0  0  0  0
   -0.5555   -2.5258    1.8001 O   0  0  0  0  0  0  0  0  0  0  0  0
   -1.0553   -0.6764    0.6072 N   0  0  0  0  0  0  0  0  0  0  0  0
   -1.7033   -0.3475   -0.1066 H   0  0  0  0  0  0  0  0  0  0  0  0
    0.2974   -0.0977    0.4842 C   0  0  1  0  0  0  0  0  0  0  0  0
    0.6345    0.1503    1.4943 H   0  0  0  0  0  0  0  0  0  0  0  0
    1.3522   -1.0610   -0.1119 C   0  0  0  0  0  0  0  0  0  0  0  0
    2.3301   -0.5712   -0.0666 H   0  0  0  0  0  0  0  0  0  0  0  0
    1.4321   -1.9749    0.4814 H   0  0  0  0  0  0  0  0  0  0  0  0
    1.0797   -1.3973   -1.4761 O   0  0  0  0  0  0  0  0  0  0  0  0
    1.7593   -1.9956   -1.8300 H   0  0  0  0  0  0  0  0  0  0  0  0
    0.2487    1.2134   -0.3299 C   0  0  0  0  0  0  0  0  0  0  0  0
   -0.2126    1.2490   -1.4642 O   0  0  0  0  0  0  0  0  0  0  0  0
    0.3734    2.4188    0.3409 N   0  0  0  0  0  0  0  0  0  0  0  0
    0.5940    2.3834    1.3317 H   0  0  0  0  0  0  0  0  0  0  0  0
    0.0956    3.7142   -0.2696 C   0  0  0  0  0  0  0  0  0  0  0  0
   -0.9654    3.7973   -0.5275 H   0  0  0  0  0  0  0  0  0  0  0  0
    0.3476    4.5213    0.4249 H   0  0  0  0  0  0  0  0  0  0  0  0
    0.6907    3.8461   -1.1795 H   0  0  0  0  0  0  0  0  0  0  0  0
  1  2  1  0  0  0  0
  2  3  1  0  0  0  0
  2  4  1  0  0  0  0
  2  5  1  0  0  0  0
  5  6  2  0  0  0  0
  5  7  1  0  0  0  0
  7  8  1  0  0  0  0
  7  9  1  0  0  0  0
  9 10  1  0  0  0  0
  9 11  1  0  0  0  0
  9 16  1  0  0  0  0
 11 12  1  0  0  0  0
 11 13  1  0  0  0  0
 11 14  1  0  0  0  0
 14 15  1  0  0  0  0
 16 17  2  0  0  0  0
 16 18  1  0  0  0  0
 18 19  1  0  0  0  0
 18 20  1  0  0  0  0
 20 21  1  0  0  0  0
 20 22  1  0  0  0  0
 20 23  1  0  0  0  0
M  END
$$$$

  -OEChem-01062216093D

 23 22  0     1  0  0  0  0  0999 V2000
   -2.6446   -3.6708    0.9782 H   0  0  0  0  0  0  0  0  0  0  0  0
   -2.6010   -2.6521    0.5830 C   0  0  0  0  0  0  0  0  0  0  0  0
   -3.4573   -2.0891    0.9619 H   0  0  0  0  0  0  0  0  0  0  0  0
   -2.6549   -2.6955   -0.5077 H   0  0  0  0  0  0  0  0  0  0  0  0
   -1.3095   -1.9804    1.0094 C   0  0  0  0  0  0  0  0  0  0  0  0
   -0.5497   -2.5538    1.7742 O   0  0  0  0  0  0  0  0  0  0  0  0
   -1.0477   -0.6892    0.6031 N   0  0  0  0  0  0  0  0  0  0  0  0
   -1.6960   -0.3398   -0.1018 H   0  0  0  0  0  0  0  0  0  0  0  0
    0.3039   -0.1056    0.4993 C   0  0  1  0  0  0  0  0  0  0  0  0
    0.6298    0.1401    1.5135 H   0  0  0  0  0  0  0  0  0  0  0  0
    1.3654   -1.0501   -0.1093 C   0  0  0  0  0  0  0  0  0  0  0  0
    2.3437   -0.5624   -0.0468 H   0  0  0  0  0  0  0  0  0  0  0  0
    1.4401   -1.9783    0.4623 H   0  0  0  0  0  0  0  0  0  0  0  0
    1.0944   -1.3512   -1.4821 O   0  0  0  0  0  0  0  0  0  0  0  0
    1.7503   -1.9749   -1.8376 H   0  0  0  0  0  0  0  0  0  0  0  0
    0.2576    1.2007   -0.3203 C   0  0  0  0  0  0  0  0  0  0  0  0
   -0.4294    1.2797   -1.3333 O   0  0  0  0  0  0  0  0  0  0  0  0
    0.6702    2.3847    0.2677 N   0  0  0  0  0  0  0  0  0  0  0  0
    1.1108    2.3287    1.1808 H   0  0  0  0  0  0  0  0  0  0  0  0
    0.4395    3.6986   -0.3220 C   0  0  0  0  0  0  0  0  0  0  0  0
   -0.6331    3.9137   -0.3711 H   0  0  0  0  0  0  0  0  0  0  0  0
    0.9211    4.4739    0.2815 H   0  0  0  0  0  0  0  0  0  0  0  0
    0.8549    3.7432   -1.3344 H   0  0  0  0  0  0  0  0  0  0  0  0
  1  2  1  0  0  0  0
  2  3  1  0  0  0  0
  2  4  1  0  0  0  0
  2  5  1  0  0  0  0
  5  6  2  0  0  0  0
  5  7  1  0  0  0  0
  7  8  1  0  0  0  0
  7  9  1  0  0  0  0
  9 10  1  0  0  0  0
  9 11  1  0  0  0  0
  9 16  1  0  0  0  0
 11 12  1  0  0  0  0
 11 13  1  0  0  0  0
 11 14  1  0  0  0  0
 14 15  1  0  0  0  0
 16 17  2  0  0  0  0
 16 18  1  0  0  0  0
 18 19  1  0  0  0  0
 18 20  1  0  0  0  0
 20 21  1  0  0  0  0
 20 22  1  0  0  0  0
 20 23  1  0  0  0  0
M  END
$$$$

  -OEChem-01062216093D

 23 22  0     1  0  0  0  0  0999 V2000
   -2.6539   -3.6796    0.9826 H   0  0  0  0  0  0  0  0  0  0  0  0
   -2.6121   -2.6572    0.5970 C   0  0  0  0  0  0  0  0  0  0  0  0
   -3.4587   -2.0939    0.9968 H   0  0  0  0  0  0  0  0  0  0  0  0
   -2.6856   -2.6890   -0.4929 H   0  0  0  0  0  0  0  0  0  0  0  0
   -1.3099   -1.9963    1.0072 C   0  0  0  0  0  0  0  0  0  0  0  0
   -0.5388   -2.5827    1.7506 O   0  0  0  0  0  0  0  0  0  0  0  0
   -1.0460   -0.7048    0.6041 N   0  0  0  0  0  0  0  0  0  0  0  0
   -1.7036   -0.3341   -0.0818 H   0  0  0  0  0  0  0  0  0  0  0  0
    0.3008   -0.1082    0.5136 C   0  0  1  0  0  0  0  0  0  0  0  0
    0.6207    0.1361    1.5302 H   0  0  0  0  0  0  0  0  0  0  0  0
    1.3676   -1.0351   -0.1091 C   0  0  0  0  0  0  0  0  0  0  0  0
    2.3444   -0.5460   -0.0372 H   0  0  0  0  0  0  0  0  0  0  0  0
    1.4445   -1.9742    0.4440 H   0  0  0  0  0  0  0  0  0  0  0  0
    1.0920   -1.3081   -1.4871 O   0  0  0  0  0  0  0  0  0  0  0  0
    1.7305   -1.9463   -1.8490 H   0  0  0  0  0  0  0  0  0  0  0  0
    0.2529    1.1968   -0.3075 C   0  0  0  0  0  0  0  0  0  0  0  0
   -0.5883    1.3458   -1.1892 O   0  0  0  0  0  0  0  0  0  0  0  0
    0.9242    2.3189    0.1479 N   0  0  0  0  0  0  0  0  0  0  0  0
    1.5442    2.2082    0.9444 H   0  0  0  0  0  0  0  0  0  0  0  0
    0.7780    3.6398   -0.4527 C   0  0  0  0  0  0  0  0  0  0  0  0
   -0.2485    4.0027   -0.3355 H   0  0  0  0  0  0  0  0  0  0  0  0
    1.4540    4.3520    0.0302 H   0  0  0  0  0  0  0  0  0  0  0  0
    1.0195    3.6046   -1.5204 H   0  0  0  0  0  0  0  0  0  0  0  0
  1  2  1  0  0  0  0
  2  3  1  0  0  0  0
  2  4  1  0  0  0  0
  2  5  1  0  0  0  0
  5  6  2  0  0  0  0
  5  7  1  0  0  0  0
  7  8  1  0  0  0  0
  7  9  1  0  0  0  0
  9 10  1  0  0  0  0
  9 11  1  0  0  0  0
  9 16  1  0  0  0  0
 11 12  1  0  0  0  0
 11 13  1  0  0  0  0
 11 14  1  0  0  0  0
 14 15  1  0  0  0  0
 16 17  2  0  0  0  0
 16 18  1  0  0  0  0
 18 19  1  0  0  0  0
 18 20  1  0  0  0  0
 20 21  1  0  0  0  0
 20 22  1  0  0  0  0
 20 23  1  0  0  0  0
M  END
$$$$

  -OEChem-01062216093D

 23 22  0     1  0  0  0  0  0999 V2000
   -2.6768   -3.6786    0.9981 H   0  0  0  0  0  0  0  0  0  0  0  0
   -2.6259   -2.6567    0.6119 C   0  0  0  0  0  0  0  0  0  0  0  0
   -3.4553   -2.0799    1.0281 H   0  0  0  0  0  0  0  0  0  0  0  0
   -2.7213   -2.6864   -0.4762 H   0  0  0  0  0  0  0  0  0  0  0  0
   -1.3058   -2.0163    0.9967 C   0  0  0  0  0  0  0  0  0  0  0  0
   -0.5228   -2.6216    1.7121 O   0  0  0  0  0  0  0  0  0  0  0  0
   -1.0389   -0.7231    0.6015 N   0  0  0  0  0  0  0  0  0  0  0  0
   -1.7134   -0.3244   -0.0520 H   0  0  0  0  0  0  0  0  0  0  0  0
    0.3019   -0.1101    0.5241 C   0  0  1  0  0  0  0  0  0  0  0  0
    0.6168    0.1332    1.5426 H   0  0  0  0  0  0  0  0  0  0  0  0
    1.3745   -1.0218   -0.1101 C   0  0  0  0  0  0  0  0  0  0  0  0
    2.3499   -0.5308   -0.0314 H   0  0  0  0  0  0  0  0  0  0  0  0
    1.4551   -1.9687    0.4288 H   0  0  0  0  0  0  0  0  0  0  0  0
    1.0971   -1.2738   -1.4921 O   0  0  0  0  0  0  0  0  0  0  0  0
    1.7234   -1.9218   -1.8586 H   0  0  0  0  0  0  0  0  0  0  0  0
    0.2497    1.1970   -0.2939 C   0  0  0  0  0  0  0  0  0  0  0  0
   -0.7049    1.4318   -1.0301 O   0  0  0  0  0  0  0  0  0  0  0  0
    1.1354    2.2238   -0.0145 N   0  0  0  0  0  0  0  0  0  0  0  0
    1.8862    2.0347    0.6422 H   0  0  0  0  0  0  0  0  0  0  0  0
    1.0666    3.5350   -0.6484 C   0  0  0  0  0  0  0  0  0  0  0  0
    0.1335    4.0417   -0.3801 H   0  0  0  0  0  0  0  0  0  0  0  0
    1.9049    4.1577   -0.3214 H   0  0  0  0  0  0  0  0  0  0  0  0
    1.1145    3.4374   -1.7382 H   0  0  0  0  0  0  0  0  0  0  0  0
  1  2  1  0  0  0  0
  2  3  1  0  0  0  0
  2  4  1  0  0  0  0
  2  5  1  0  0  0  0
  5  6  2  0  0  0  0
  5  7  1  0  0  0  0
  7  8  1  0  0  0  0
  7  9  1  0  0  0  0
  9 10  1  0  0  0  0
  9 11  1  0  0  0  0
  9 16  1  0  0  0  0
 11 12  1  0  0  0  0
 11 13  1  0  0  0  0
 11 14  1  0  0  0  0
 14 15  1  0  0  0  0
 16 17  2  0  0  0  0
 16 18  1  0  0  0  0
 18 19  1  0  0  0  0
 18 20  1  0  0  0  0
 20 21  1  0  0  0  0
 20 22  1  0  0  0  0
 20 23  1  0  0  0  0
M  END
$$$$

  -OEChem-01062216093D

 23 22  0     1  0  0  0  0  0999 V2000
   -2.6899   -3.6788    0.9838 H   0  0  0  0  0  0  0  0  0  0  0  0
   -2.6386   -2.6484    0.6210 C   0  0  0  0  0  0  0  0  0  0  0  0
   -3.4493   -2.0731    1.0747 H   0  0  0  0  0  0  0  0  0  0  0  0
   -2.7650   -2.6507   -0.4644 H   0  0  0  0  0  0  0  0  0  0  0  0
   -1.3007   -2.0319    0.9832 C   0  0  0  0  0  0  0  0  0  0  0  0
   -0.5101   -2.6605    1.6694 O   0  0  0  0  0  0  0  0  0  0  0  0
   -1.0262   -0.7361    0.6014 N   0  0  0  0  0  0  0  0  0  0  0  0
   -1.7190   -0.3028   -0.0095 H   0  0  0  0  0  0  0  0  0  0  0  0
    0.3111   -0.1124    0.5370 C   0  0  1  0  0  0  0  0  0  0  0  0
    0.6245    0.1251    1.5573 H   0  0  0  0  0  0  0  0  0  0  0  0
    1.3837   -1.0168   -0.1091 C   0  0  0  0  0  0  0  0  0  0  0  0
    2.3610   -0.5312   -0.0246 H   0  0  0  0  0  0  0  0  0  0  0  0
    1.4634   -1.9711    0.4165 H   0  0  0  0  0  0  0  0  0  0  0  0
    1.1023   -1.2483   -1.4942 O   0  0  0  0  0  0  0  0  0  0  0  0
    1.7098   -1.9122   -1.8642 H   0  0  0  0  0  0  0  0  0  0  0  0
    0.2548    1.2014   -0.2726 C   0  0  0  0  0  0  0  0  0  0  0  0
   -0.7801    1.5327   -0.8458 O   0  0  0  0  0  0  0  0  0  0  0  0
    1.2987    2.1088   -0.2108 N   0  0  0  0  0  0  0  0  0  0  0  0
    2.1451    1.8211    0.2702 H   0  0  0  0  0  0  0  0  0  0  0  0
    1.2821    3.3929   -0.9006 C   0  0  0  0  0  0  0  0  0  0  0  0
    0.4606    4.0161   -0.5317 H   0  0  0  0  0  0  0  0  0  0  0  0
    2.2224    3.9258   -0.7306 H   0  0  0  0  0  0  0  0  0  0  0  0
    1.1574    3.2462   -1.9786 H   0  0  0  0  0  0  0  0  0  0  0  0
  1  2  1  0  0  0  0
  2  3  1  0  0  0  0
  2  4  1  0  0  0  0
  2  5  1  0  0  0  0
  5  6  2  0  0  0  0
  5  7  1  0  0  0  0
  7  8  1  0  0  0  0
  7  9  1  0  0  0  0
  9 10  1  0  0  0  0
  9 11  1  0  0  0  0
  9 16  1  0  0  0  0
 11 12  1  0  0  0  0
 11 13  1  0  0  0  0
 11 14  1  0  0  0  0
 14 15  1  0  0  0  0
 16 17  2  0  0  0  0
 16 18  1  0  0  0  0
 18 19  1  0  0  0  0
 18 20  1  0  0  0  0
 20 21  1  0  0  0  0
 20 22  1  0  0  0  0
 20 23  1  0  0  0  0
M  END
$$$$
