default_name
  -OEChem-01062215323D

 23 22  0     1  0  0  0  0  0999 V2000
   -2.6721   -3.7279    0.7212 H   0  0  0  0  0  0  0  0  0  0  0  0
   -2.6561   -2.6819    0.4162 C   0  0  0  0  0  0  0  0  0  0  0  0
   -3.2401   -2.0889    1.1172 H   0  0  0  0  0  0  0  0  0  0  0  0
   -3.0671   -2.5859   -0.5858 H   0  0  0  0  0  0  0  0  0  0  0  0
   -1.2261   -2.1939    0.4202 C   0  0  0  0  0  0  0  0  0  0  0  0
   -0.3181   -2.9519    0.7312 O   0  0  0  0  0  0  0  0  0  0  0  0
   -1.0281   -0.9259    0.0662 N   0  0  0  0  0  0  0  0  0  0  0  0
   -1.8301   -0.3519   -0.1548 H   0  0  0  0  0  0  0  0  0  0  0  0
    0.2709   -0.2409    0.0912 C   0  0  1  0  0  0  0  0  0  0  0  0
    0.6401   -0.2261    1.1169 H   0  0  0  0  0  0  0  0  0  0  0  0
    1.2838   -1.0107   -0.7661 C   0  0  0  0  0  0  0  0  0  0  0  0
    2.2675   -0.5511   -0.6568 H   0  0  0  0  0  0  0  0  0  0  0  0
    1.3387   -2.0459   -0.4244 H   0  0  0  0  0  0  0  0  0  0  0  0
    0.9162   -0.9793   -2.1325 O   0  0  0  0  0  0  0  0  0  0  0  0
    1.6549   -1.3156   -2.6513 H   0  0  0  0  0  0  0  0  0  0  0  0
    0.1235    1.2145   -0.3831 C   0  0  0  0  0  0  0  0  0  0  0  0
   -0.9830    1.6486   -0.7056 O   0  0  0  0  0  0  0  0  0  0  0  0
    1.2256    1.9713   -0.4159 N   0  0  0  0  0  0  0  0  0  0  0  0
    2.1011    1.5033   -0.2228 H   0  0  0  0  0  0  0  0  0  0  0  0
    1.2586    3.3757   -0.8196 C   0  0  0  0  0  0  0  0  0  0  0  0
    0.4372    3.9164   -0.3448 H   0  0  0  0  0  0  0  0  0  0  0  0
    2.2051    3.8297   -0.5248 H   0  0  0  0  0  0  0  0  0  0  0  0
    1.1443    3.4481   -1.9032 H   0  0  0  0  0  0  0  0  0  0  0  0
  5  6  2  0  0  0  0
  5  7  1  0  0  0  0
  2  3  1  0  0  0  0
  2  4  1  0  0  0  0
  2  5  1  0  0  0  0
  1  2  1  0  0  0  0
 16 17  2  0  0  0  0
 16 18  1  0  0  0  0
 14 15  1  0  0  0  0
 11 12  1  0  0  0  0
 11 13  1  0  0  0  0
 11 14  1  0  0  0  0
  9 10  1  0  0  0  0
  9 11  1  0  0  0  0
  9 16  1  0  0  0  0
  7  8  1  0  0  0  0
  7  9  1  0  0  0  0
 20 21  1  0  0  0  0
 20 22  1  0  0  0  0
 20 23  1  0  0  0  0
 18 19  1  0  0  0  0
 18 20  1  0  0  0  0
M  END
$$$$
default_name
  -OEChem-01062215323D

 23 22  0     1  0  0  0  0  0999 V2000
   -2.6721   -3.7279    0.7212 H   0  0  0  0  0  0  0  0  0  0  0  0
   -2.6561   -2.6819    0.4162 C   0  0  0  0  0  0  0  0  0  0  0  0
   -3.2401   -2.0889    1.1172 H   0  0  0  0  0  0  0  0  0  0  0  0
   -3.0671   -2.5859   -0.5858 H   0  0  0  0  0  0  0  0  0  0  0  0
   -1.2261   -2.1939    0.4202 C   0  0  0  0  0  0  0  0  0  0  0  0
   -0.3181   -2.9519    0.7312 O   0  0  0  0  0  0  0  0  0  0  0  0
   -1.0281   -0.9259    0.0662 N   0  0  0  0  0  0  0  0  0  0  0  0
   -1.8301   -0.3519   -0.1548 H   0  0  0  0  0  0  0  0  0  0  0  0
    0.2709   -0.2409    0.0912 C   0  0  1  0  0  0  0  0  0  0  0  0
    0.6401   -0.2261    1.1169 H   0  0  0  0  0  0  0  0  0  0  0  0
    1.2838   -1.0107   -0.7661 C   0  0  0  0  0  0  0  0  0  0  0  0
    2.2675   -0.5511   -0.6568 H   0  0  0  0  0  0  0  0  0  0  0  0
    1.3387   -2.0459   -0.4244 H   0  0  0  0  0  0  0  0  0  0  0  0
    0.9162   -0.9793   -2.1325 O   0  0  0  0  0  0  0  0  0  0  0  0
    1.6549   -1.3156   -2.6513 H   0  0  0  0  0  0  0  0  0  0  0  0
    0.1235    1.2145   -0.3831 C   0  0  0  0  0  0  0  0  0  0  0  0
   -0.9917    1.7340   -0.4408 O   0  0  0  0  0  0  0  0  0  0  0  0
    1.2384    1.8768   -0.7101 N   0  0  0  0  0  0  0  0  0  0  0  0
    2.0959    1.3407   -0.7202 H   0  0  0  0  0  0  0  0  0  0  0  0
    1.2788    3.2674   -1.1582 C   0  0  0  0  0  0  0  0  0  0  0  0
    0.6433    3.8813   -0.5164 H   0  0  0  0  0  0  0  0  0  0  0  0
    2.3007    3.6457   -1.1192 H   0  0  0  0  0  0  0  0  0  0  0  0
    0.9074    3.3329   -2.1830 H   0  0  0  0  0  0  0  0  0  0  0  0
  5  6  2  0  0  0  0
  5  7  1  0  0  0  0
  2  3  1  0  0  0  0
  2  4  1  0  0  0  0
  2  5  1  0  0  0  0
  1  2  1  0  0  0  0
 16 17  2  0  0  0  0
 16 18  1  0  0  0  0
 14 15  1  0  0  0  0
 11 12  1  0  0  0  0
 11 13  1  0  0  0  0
 11 14  1  0  0  0  0
  9 10  1  0  0  0  0
  9 11  1  0  0  0  0
  9 16  1  0  0  0  0
  7  8  1  0  0  0  0
  7  9  1  0  0  0  0
 20 21  1  0  0  0  0
 20 22  1  0  0  0  0
 20 23  1  0  0  0  0
 18 19  1  0  0  0  0
 18 20  1  0  0  0  0
M  END
$$$$
default_name
  -OEChem-01062215323D

 23 22  0     1  0  0  0  0  0999 V2000
   -2.6721   -3.7279    0.7212 H   0  0  0  0  0  0  0  0  0  0  0  0
   -2.6561   -2.6819    0.4162 C   0  0  0  0  0  0  0  0  0  0  0  0
   -3.2401   -2.0889    1.1172 H   0  0  0  0  0  0  0  0  0  0  0  0
   -3.0671   -2.5859   -0.5858 H   0  0  0  0  0  0  0  0  0  0  0  0
   -1.2261   -2.1939    0.4202 C   0  0  0  0  0  0  0  0  0  0  0  0
   -0.3181   -2.9519    0.7312 O   0  0  0  0  0  0  0  0  0  0  0  0
   -1.0281   -0.9259    0.0662 N   0  0  0  0  0  0  0  0  0  0  0  0
   -1.8301   -0.3519   -0.1548 H   0  0  0  0  0  0  0  0  0  0  0  0
    0.2709   -0.2409    0.0912 C   0  0  1  0  0  0  0  0  0  0  0  0
    0.6401   -0.2261    1.1169 H   0  0  0  0  0  0  0  0  0  0  0  0
    1.2838   -1.0107   -0.7661 C   0  0  0  0  0  0  0  0  0  0  0  0
    2.2675   -0.5511   -0.6568 H   0  0  0  0  0  0  0  0  0  0  0  0
    1.3387   -2.0459   -0.4244 H   0  0  0  0  0  0  0  0  0  0  0  0
    0.9162   -0.9793   -2.1325 O   0  0  0  0  0  0  0  0  0  0  0  0
    1.6549   -1.3156   -2.6513 H   0  0  0  0  0  0  0  0  0  0  0  0
    0.1235    1.2145   -0.3831 C   0  0  0  0  0  0  0  0  0  0  0  0
   -0.9284    1.8238   -0.1851 O   0  0  0  0  0  0  0  0  0  0  0  0
    1.1711    1.7771   -0.9950 N   0  0  0  0  0  0  0  0  0  0  0  0
    1.9561    1.1717   -1.1954 H   0  0  0  0  0  0  0  0  0  0  0  0
    1.2066    3.1528   -1.4875 C   0  0  0  0  0  0  0  0  0  0  0  0
    0.7976    3.8268   -0.7318 H   0  0  0  0  0  0  0  0  0  0  0  0
    2.2327    3.4456   -1.7121 H   0  0  0  0  0  0  0  0  0  0  0  0
    0.6008    3.2337   -2.3923 H   0  0  0  0  0  0  0  0  0  0  0  0
  5  6  2  0  0  0  0
  5  7  1  0  0  0  0
  2  3  1  0  0  0  0
  2  4  1  0  0  0  0
  2  5  1  0  0  0  0
  1  2  1  0  0  0  0
 16 17  2  0  0  0  0
 16 18  1  0  0  0  0
 14 15  1  0  0  0  0
 11 12  1  0  0  0  0
 11 13  1  0  0  0  0
 11 14  1  0  0  0  0
  9 10  1  0  0  0  0
  9 11  1  0  0  0  0
  9 16  1  0  0  0  0
  7  8  1  0  0  0  0
  7  9  1  0  0  0  0
 20 21  1  0  0  0  0
 20 22  1  0  0  0  0
 20 23  1  0  0  0  0
 18 19  1  0  0  0  0
 18 20  1  0  0  0  0
M  END
$$$$
default_name
  -OEChem-01062215323D

 23 22  0     1  0  0  0  0  0999 V2000
   -2.6721   -3.7279    0.7212 H   0  0  0  0  0  0  0  0  0  0  0  0
   -2.6561   -2.6819    0.4162 C   0  0  0  0  0  0  0  0  0  0  0  0
   -3.2401   -2.0889    1.1172 H   0  0  0  0  0  0  0  0  0  0  0  0
   -3.0671   -2.5859   -0.5858 H   0  0  0  0  0  0  0  0  0  0  0  0
   -1.2261   -2.1939    0.4202 C   0  0  0  0  0  0  0  0  0  0  0  0
   -0.3181   -2.9519    0.7312 O   0  0  0  0  0  0  0  0  0  0  0  0
   -1.0281   -0.9259    0.0662 N   0  0  0  0  0  0  0  0  0  0  0  0
   -1.8301   -0.3519   -0.1548 H   0  0  0  0  0  0  0  0  0  0  0  0
    0.2709   -0.2409    0.0912 C   0  0  1  0  0  0  0  0  0  0  0  0
    0.6401   -0.2261    1.1169 H   0  0  0  0  0  0  0  0  0  0  0  0
    1.2838   -1.0107   -0.7661 C   0  0  0  0  0  0  0  0  0  0  0  0
    2.2675   -0.5511   -0.6568 H   0  0  0  0  0  0  0  0  0  0  0  0
    1.3387   -2.0459   -0.4244 H   0  0  0  0  0  0  0  0  0  0  0  0
    0.9162   -0.9793   -2.1325 O   0  0  0  0  0  0  0  0  0  0  0  0
    1.6549   -1.3156   -2.6513 H   0  0  0  0  0  0  0  0  0  0  0  0
    0.1235    1.2145   -0.3831 C   0  0  0  0  0  0  0  0  0  0  0  0
   -0.7974    1.9117    0.0442 O   0  0  0  0  0  0  0  0  0  0  0  0
    1.0284    1.6791   -1.2512 N   0  0  0  0  0  0  0  0  0  0  0  0
    1.6911    1.0078   -1.6159 H   0  0  0  0  0  0  0  0  0  0  0  0
    1.0472    3.0396   -1.7850 C   0  0  0  0  0  0  0  0  0  0  0  0
    0.8895    3.7564   -0.9763 H   0  0  0  0  0  0  0  0  0  0  0  0
    2.0058    3.2430   -2.2632 H   0  0  0  0  0  0  0  0  0  0  0  0
    0.2454    3.1570   -2.5170 H   0  0  0  0  0  0  0  0  0  0  0  0
  5  6  2  0  0  0  0
  5  7  1  0  0  0  0
  2  3  1  0  0  0  0
  2  4  1  0  0  0  0
  2  5  1  0  0  0  0
  1  2  1  0  0  0  0
 16 17  2  0  0  0  0
 16 18  1  0  0  0  0
 14 15  1  0  0  0  0
 11 12  1  0  0  0  0
 11 13  1  0  0  0  0
 11 14  1  0  0  0  0
  9 10  1  0  0  0  0
  9 11  1  0  0  0  0
  9 16  1  0  0  0  0
  7  8  1  0  0  0  0
  7  9  1  0  0  0  0
 20 21  1  0  0  0  0
 20 22  1  0  0  0  0
 20 23  1  0  0  0  0
 18 19  1  0  0  0  0
 18 20  1  0  0  0  0
M  END
$$$$
default_name
  -OEChem-01062215323D

 23 22  0     1  0  0  0  0  0999 V2000
   -2.6721   -3.7279    0.7212 H   0  0  0  0  0  0  0  0  0  0  0  0
   -2.6561   -2.6819    0.4162 C   0  0  0  0  0  0  0  0  0  0  0  0
   -3.2401   -2.0889    1.1172 H   0  0  0  0  0  0  0  0  0  0  0  0
   -3.0671   -2.5859   -0.5858 H   0  0  0  0  0  0  0  0  0  0  0  0
   -1.2261   -2.1939    0.4202 C   0  0  0  0  0  0  0  0  0  0  0  0
   -0.3181   -2.9519    0.7312 O   0  0  0  0  0  0  0  0  0  0  0  0
   -1.0281   -0.9259    0.0662 N   0  0  0  0  0  0  0  0  0  0  0  0
   -1.8301   -0.3519   -0.1548 H   0  0  0  0  0  0  0  0  0  0  0  0
    0.2709   -0.2409    0.0912 C   0  0  1  0  0  0  0  0  0  0  0  0
    0.6401   -0.2261    1.1169 H   0  0  0  0  0  0  0  0  0  0  0  0
    1.2838   -1.0107   -0.7661 C   0  0  0  0  0  0  0  0  0  0  0  0
    2.2675   -0.5511   -0.6568 H   0  0  0  0  0  0  0  0  0  0  0  0
    1.3387   -2.0459   -0.4244 H   0  0  0  0  0  0  0  0  0  0  0  0
    0.9162   -0.9793   -2.1325 O   0  0  0  0  0  0  0  0  0  0  0  0
    1.6549   -1.3156   -2.6513 H   0  0  0  0  0  0  0  0  0  0  0  0
    0.1235    1.2145   -0.3831 C   0  0  0  0  0  0  0  0  0  0  0  0
   -0.6077    1.9920    0.2314 O   0  0  0  0  0  0  0  0  0  0  0  0
    0.8200    1.5896   -1.4614 N   0  0  0  0  0  0  0  0  0  0  0  0
    1.3191    0.8602   -1.9532 H   0  0  0  0  0  0  0  0  0  0  0  0
    0.8112    2.9357   -2.0306 C   0  0  0  0  0  0  0  0  0  0  0  0
    0.9128    3.6750   -1.2332 H   0  0  0  0  0  0  0  0  0  0  0  0
    1.6355    3.0517   -2.7349 H   0  0  0  0  0  0  0  0  0  0  0  0
   -0.1345    3.1083   -2.5485 H   0  0  0  0  0  0  0  0  0  0  0  0
  5  6  2  0  0  0  0
  5  7  1  0  0  0  0
  2  3  1  0  0  0  0
  2  4  1  0  0  0  0
  2  5  1  0  0  0  0
  1  2  1  0  0  0  0
 16 17  2  0  0  0  0
 16 18  1  0  0  0  0
 14 15  1  0  0  0  0
 11 12  1  0  0  0  0
 11 13  1  0  0  0  0
 11 14  1  0  0  0  0
  9 10  1  0  0  0  0
  9 11  1  0  0  0  0
  9 16  1  0  0  0  0
  7  8  1  0  0  0  0
  7  9  1  0  0  0  0
 20 21  1  0  0  0  0
 20 22  1  0  0  0  0
 20 23  1  0  0  0  0
 18 19  1  0  0  0  0
 18 20  1  0  0  0  0
M  END
$$$$
default_name
  -OEChem-01062215323D

 23 22  0     1  0  0  0  0  0999 V2000
   -2.6721   -3.7279    0.7212 H   0  0  0  0  0  0  0  0  0  0  0  0
   -2.6561   -2.6819    0.4162 C   0  0  0  0  0  0  0  0  0  0  0  0
   -3.2401   -2.0889    1.1172 H   0  0  0  0  0  0  0  0  0  0  0  0
   -3.0671   -2.5859   -0.5858 H   0  0  0  0  0  0  0  0  0  0  0  0
   -1.2261   -2.1939    0.4202 C   0  0  0  0  0  0  0  0  0  0  0  0
   -0.3181   -2.9519    0.7312 O   0  0  0  0  0  0  0  0  0  0  0  0
   -1.0281   -0.9259    0.0662 N   0  0  0  0  0  0  0  0  0  0  0  0
   -1.8301   -0.3519   -0.1548 H   0  0  0  0  0  0  0  0  0  0  0  0
    0.2709   -0.2409    0.0912 C   0  0  1  0  0  0  0  0  0  0  0  0
    0.6401   -0.2261    1.1169 H   0  0  0  0  0  0  0  0  0  0  0  0
    1.2838   -1.0107   -0.7661 C   0  0  0  0  0  0  0  0  0  0  0  0
    2.2675   -0.5511   -0.6568 H   0  0  0  0  0  0  0  0  0  0  0  0
    1.3387   -2.0459   -0.4244 H   0  0  0  0  0  0  0  0  0  0  0  0
    0.9162   -0.9793   -2.1325 O   0  0  0  0  0  0  0  0  0  0  0  0
    1.6549   -1.3156   -2.6513 H   0  0  0  0  0  0  0  0  0  0  0  0
    0.1235    1.2145   -0.3831 C   0  0  0  0  0  0  0  0  0  0  0  0
   -0.3722    2.0590    0.3638 O   0  0  0  0  0  0  0  0  0  0  0  0
    0.5601    1.5144   -1.6111 N   0  0  0  0  0  0  0  0  0  0  0  0
    0.8654    0.7390   -2.1841 H   0  0  0  0  0  0  0  0  0  0  0  0
    0.5149    2.8481   -2.2074 C   0  0  0  0  0  0  0  0  0  0  0  0
    0.8659    3.5882   -1.4851 H   0  0  0  0  0  0  0  0  0  0  0  0
    1.1470    2.8849   -3.0951 H   0  0  0  0  0  0  0  0  0  0  0  0
   -0.5131    3.0908   -2.4846 H   0  0  0  0  0  0  0  0  0  0  0  0
  5  6  2  0  0  0  0
  5  7  1  0  0  0  0
  2  3  1  0  0  0  0
  2  4  1  0  0  0  0
  2  5  1  0  0  0  0
  1  2  1  0  0  0  0
 16 17  2  0  0  0  0
 16 18  1  0  0  0  0
 14 15  1  0  0  0  0
 11 12  1  0  0  0  0
 11 13  1  0  0  0  0
 11 14  1  0  0  0  0
  9 10  1  0  0  0  0
  9 11  1  0  0  0  0
  9 16  1  0  0  0  0
  7  8  1  0  0  0  0
  7  9  1  0  0  0  0
 20 21  1  0  0  0  0
 20 22  1  0  0  0  0
 20 23  1  0  0  0  0
 18 19  1  0  0  0  0
 18 20  1  0  0  0  0
M  END
$$$$
default_name
  -OEChem-01062215323D

 23 22  0     1  0  0  0  0  0999 V2000
   -2.6721   -3.7279    0.7212 H   0  0  0  0  0  0  0  0  0  0  0  0
   -2.6561   -2.6819    0.4162 C   0  0  0  0  0  0  0  0  0  0  0  0
   -3.2401   -2.0889    1.1172 H   0  0  0  0  0  0  0  0  0  0  0  0
   -3.0671   -2.5859   -0.5858 H   0  0  0  0  0  0  0  0  0  0  0  0
   -1.2261   -2.1939    0.4202 C   0  0  0  0  0  0  0  0  0  0  0  0
   -0.3181   -2.9519    0.7312 O   0  0  0  0  0  0  0  0  0  0  0  0
   -1.0281   -0.9259    0.0662 N   0  0  0  0  0  0  0  0  0  0  0  0
   -1.8301   -0.3519   -0.1548 H   0  0  0  0  0  0  0  0  0  0  0  0
    0.2709   -0.2409    0.0912 C   0  0  1  0  0  0  0  0  0  0  0  0
    0.6401   -0.2261    1.1169 H   0  0  0  0  0  0  0  0  0  0  0  0
    1.2838   -1.0107   -0.7661 C   0  0  0  0  0  0  0  0  0  0  0  0
    2.2675   -0.5511   -0.6568 H   0  0  0  0  0  0  0  0  0  0  0  0
    1.3387   -2.0459   -0.4244 H   0  0  0  0  0  0  0  0  0  0  0  0
    0.9162   -0.9793   -2.1325 O   0  0  0  0  0  0  0  0  0  0  0  0
    1.6549   -1.3156   -2.6513 H   0  0  0  0  0  0  0  0  0  0  0  0
    0.1235    1.2145   -0.3831 C   0  0  0  0  0  0  0  0  0  0  0  0
   -0.1070    2.1082    0.4324 O   0  0  0  0  0  0  0  0  0  0  0  0
    0.2663    1.4589   -1.6902 N   0  0  0  0  0  0  0  0  0  0  0  0
    0.3609    0.6524   -2.2930 H   0  0  0  0  0  0  0  0  0  0  0  0
    0.1783    2.7827   -2.3034 C   0  0  0  0  0  0  0  0  0  0  0  0
    0.7519    3.5018   -1.7147 H   0  0  0  0  0  0  0  0  0  0  0  0
    0.5736    2.7538   -3.3192 H   0  0  0  0  0  0  0  0  0  0  0  0
   -0.8645    3.1056   -2.3298 H   0  0  0  0  0  0  0  0  0  0  0  0
  5  6  2  0  0  0  0
  5  7  1  0  0  0  0
  2  3  1  0  0  0  0
  2  4  1  0  0  0  0
  2  5  1  0  0  0  0
  1  2  1  0  0  0  0
 16 17  2  0  0  0  0
 16 18  1  0  0  0  0
 14 15  1  0  0  0  0
 11 12  1  0  0  0  0
 11 13  1  0  0  0  0
 11 14  1  0  0  0  0
  9 10  1  0  0  0  0
  9 11  1  0  0  0  0
  9 16  1  0  0  0  0
  7  8  1  0  0  0  0
  7  9  1  0  0  0  0
 20 21  1  0  0  0  0
 20 22  1  0  0  0  0
 20 23  1  0  0  0  0
 18 19  1  0  0  0  0
 18 20  1  0  0  0  0
M  END
$$$$
default_name
  -OEChem-01062215323D

 23 22  0     1  0  0  0  0  0999 V2000
   -2.6721   -3.7279    0.7212 H   0  0  0  0  0  0  0  0  0  0  0  0
   -2.6561   -2.6819    0.4162 C   0  0  0  0  0  0  0  0  0  0  0  0
   -3.2401   -2.0889    1.1172 H   0  0  0  0  0  0  0  0  0  0  0  0
   -3.0671   -2.5859   -0.5858 H   0  0  0  0  0  0  0  0  0  0  0  0
   -1.2261   -2.1939    0.4202 C   0  0  0  0  0  0  0  0  0  0  0  0
   -0.3181   -2.9519    0.7312 O   0  0  0  0  0  0  0  0  0  0  0  0
   -1.0281   -0.9259    0.0662 N   0  0  0  0  0  0  0  0  0  0  0  0
   -1.8301   -0.3519   -0.1548 H   0  0  0  0  0  0  0  0  0  0  0  0
    0.2709   -0.2409    0.0912 C   0  0  1  0  0  0  0  0  0  0  0  0
    0.6401   -0.2261    1.1169 H   0  0  0  0  0  0  0  0  0  0  0  0
    1.2838   -1.0107   -0.7661 C   0  0  0  0  0  0  0  0  0  0  0  0
    2.2675   -0.5511   -0.6568 H   0  0  0  0  0  0  0  0  0  0  0  0
    1.3387   -2.0459   -0.4244 H   0  0  0  0  0  0  0  0  0  0  0  0
    0.9162   -0.9793   -2.1325 O   0  0  0  0  0  0  0  0  0  0  0  0
    1.6549   -1.3156   -2.6513 H   0  0  0  0  0  0  0  0  0  0  0  0
    0.1235    1.2145   -0.3831 C   0  0  0  0  0  0  0  0  0  0  0  0
    0.1700    2.1362    0.4324 O   0  0  0  0  0  0  0  0  0  0  0  0
   -0.0412    1.4268   -1.6932 N   0  0  0  0  0  0  0  0  0  0  0  0
   -0.1600    0.6063   -2.2726 H   0  0  0  0  0  0  0  0  0  0  0  0
   -0.1755    2.7440   -2.3121 C   0  0  0  0  0  0  0  0  0  0  0  0
    0.5787    3.4218   -1.9065 H   0  0  0  0  0  0  0  0  0  0  0  0
   -0.0457    2.6673   -3.3920 H   0  0  0  0  0  0  0  0  0  0  0  0
   -1.1648    3.1519   -2.0945 H   0  0  0  0  0  0  0  0  0  0  0  0
  5  6  2  0  0  0  0
  5  7  1  0  0  0  0
  2  3  1  0  0  0  0
  2  4  1  0  0  0  0
  2  5  1  0  0  0  0
  1  2  1  0  0  0  0
 16 17  2  0  0  0  0
 16 18  1  0  0  0  0
 14 15  1  0  0  0  0
 11 12  1  0  0  0  0
 11 13  1  0  0  0  0
 11 14  1  0  0  0  0
  9 10  1  0  0  0  0
  9 11  1  0  0  0  0
  9 16  1  0  0  0  0
  7  8  1  0  0  0  0
  7  9  1  0  0  0  0
 20 21  1  0  0  0  0
 20 22  1  0  0  0  0
 20 23  1  0  0  0  0
 18 19  1  0  0  0  0
 18 20  1  0  0  0  0
M  END
$$$$
default_name
  -OEChem-01062215323D

 23 22  0     1  0  0  0  0  0999 V2000
   -2.6721   -3.7279    0.7212 H   0  0  0  0  0  0  0  0  0  0  0  0
   -2.6561   -2.6819    0.4162 C   0  0  0  0  0  0  0  0  0  0  0  0
   -3.2401   -2.0889    1.1172 H   0  0  0  0  0  0  0  0  0  0  0  0
   -3.0671   -2.5859   -0.5858 H   0  0  0  0  0  0  0  0  0  0  0  0
   -1.2261   -2.1939    0.4202 C   0  0  0  0  0  0  0  0  0  0  0  0
   -0.3181   -2.9519    0.7312 O   0  0  0  0  0  0  0  0  0  0  0  0
   -1.0281   -0.9259    0.0662 N   0  0  0  0  0  0  0  0  0  0  0  0
   -1.8301   -0.3519   -0.1548 H   0  0  0  0  0  0  0  0  0  0  0  0
    0.2709   -0.2409    0.0912 C   0  0  1  0  0  0  0  0  0  0  0  0
    0.6401   -0.2261    1.1169 H   0  0  0  0  0  0  0  0  0  0  0  0
    1.2838   -1.0107   -0.7661 C   0  0  0  0  0  0  0  0  0  0  0  0
    2.2675   -0.5511   -0.6568 H   0  0  0  0  0  0  0  0  0  0  0  0
    1.3387   -2.0459   -0.4244 H   0  0  0  0  0  0  0  0  0  0  0  0
    0.9162   -0.9793   -2.1325 O   0  0  0  0  0  0  0  0  0  0  0  0
    1.6549   -1.3156   -2.6513 H   0  0  0  0  0  0  0  0  0  0  0  0
    0.1235    1.2145   -0.3831 C   0  0  0  0  0  0  0  0  0  0  0  0
    0.4397    2.1412    0.3638 O   0  0  0  0  0  0  0  0  0  0  0  0
   -0.3416    1.4202   -1.6200 N   0  0  0  0  0  0  0  0  0  0  0  0
   -0.6618    0.6039   -2.1240 H   0  0  0  0  0  0  0  0  0  0  0  0
   -0.5225    2.7347   -2.2328 C   0  0  0  0  0  0  0  0  0  0  0  0
    0.3580    3.3535   -2.0473 H   0  0  0  0  0  0  0  0  0  0  0  0
   -0.6685    2.6315   -3.3084 H   0  0  0  0  0  0  0  0  0  0  0  0
   -1.3936    3.2264   -1.7948 H   0  0  0  0  0  0  0  0  0  0  0  0
  5  6  2  0  0  0  0
  5  7  1  0  0  0  0
  2  3  1  0  0  0  0
  2  4  1  0  0  0  0
  2  5  1  0  0  0  0
  1  2  1  0  0  0  0
 16 17  2  0  0  0  0
 16 18  1  0  0  0  0
 14 15  1  0  0  0  0
 11 12  1  0  0  0  0
 11 13  1  0  0  0  0
 11 14  1  0  0  0  0
  9 10  1  0  0  0  0
  9 11  1  0  0  0  0
  9 16  1  0  0  0  0
  7  8  1  0  0  0  0
  7  9  1  0  0  0  0
 20 21  1  0  0  0  0
 20 22  1  0  0  0  0
 20 23  1  0  0  0  0
 18 19  1  0  0  0  0
 18 20  1  0  0  0  0
M  END
$$$$
default_name
  -OEChem-01062215323D

 23 22  0     1  0  0  0  0  0999 V2000
   -2.6721   -3.7279    0.7212 H   0  0  0  0  0  0  0  0  0  0  0  0
   -2.6561   -2.6819    0.4162 C   0  0  0  0  0  0  0  0  0  0  0  0
   -3.2401   -2.0889    1.1172 H   0  0  0  0  0  0  0  0  0  0  0  0
   -3.0671   -2.5859   -0.5858 H   0  0  0  0  0  0  0  0  0  0  0  0
   -1.2261   -2.1939    0.4202 C   0  0  0  0  0  0  0  0  0  0  0  0
   -0.3181   -2.9519    0.7312 O   0  0  0  0  0  0  0  0  0  0  0  0
   -1.0281   -0.9259    0.0662 N   0  0  0  0  0  0  0  0  0  0  0  0
   -1.8301   -0.3519   -0.1548 H   0  0  0  0  0  0  0  0  0  0  0  0
    0.2709   -0.2409    0.0912 C   0  0  1  0  0  0  0  0  0  0  0  0
    0.6401   -0.2261    1.1169 H   0  0  0  0  0  0  0  0  0  0  0  0
    1.2838   -1.0107   -0.7661 C   0  0  0  0  0  0  0  0  0  0  0  0
    2.2675   -0.5511   -0.6568 H   0  0  0  0  0  0  0  0  0  0  0  0
    1.3387   -2.0459   -0.4244 H   0  0  0  0  0  0  0  0  0  0  0  0
    0.9162   -0.9793   -2.1325 O   0  0  0  0  0  0  0  0  0  0  0  0
    1.6549   -1.3156   -2.6513 H   0  0  0  0  0  0  0  0  0  0  0  0
    0.1235    1.2145   -0.3831 C   0  0  0  0  0  0  0  0  0  0  0  0
    0.6838    2.1228    0.2315 O   0  0  0  0  0  0  0  0  0  0  0  0
   -0.6143    1.4396   -1.4756 N   0  0  0  0  0  0  0  0  0  0  0  0
   -1.1103    0.6453   -1.8576 H   0  0  0  0  0  0  0  0  0  0  0  0
   -0.8390    2.7554   -2.0710 C   0  0  0  0  0  0  0  0  0  0  0  0
    0.1049    3.3018   -2.1275 H   0  0  0  0  0  0  0  0  0  0  0  0
   -1.2526    2.6486   -3.0743 H   0  0  0  0  0  0  0  0  0  0  0  0
   -1.5352    3.3240   -1.4511 H   0  0  0  0  0  0  0  0  0  0  0  0
  5  6  2  0  0  0  0
  5  7  1  0  0  0  0
  2  3  1  0  0  0  0
  2  4  1  0  0  0  0
  2  5  1  0  0  0  0
  1  2  1  0  0  0  0
 16 17  2  0  0  0  0
 16 18  1  0  0  0  0
 14 15  1  0  0  0  0
 11 12  1  0  0  0  0
 11 13  1  0  0  0  0
 11 14  1  0  0  0  0
  9 10  1  0  0  0  0
  9 11  1  0  0  0  0
  9 16  1  0  0  0  0
  7  8  1  0  0  0  0
  7  9  1  0  0  0  0
 20 21  1  0  0  0  0
 20 22  1  0  0  0  0
 20 23  1  0  0  0  0
 18 19  1  0  0  0  0
 18 20  1  0  0  0  0
M  END
$$$$
default_name
  -OEChem-01062215323D

 23 22  0     1  0  0  0  0  0999 V2000
   -2.6721   -3.7279    0.7212 H   0  0  0  0  0  0  0  0  0  0  0  0
   -2.6561   -2.6819    0.4162 C   0  0  0  0  0  0  0  0  0  0  0  0
   -3.2401   -2.0889    1.1172 H   0  0  0  0  0  0  0  0  0  0  0  0
   -3.0671   -2.5859   -0.5858 H   0  0  0  0  0  0  0  0  0  0  0  0
   -1.2261   -2.1939    0.4202 C   0  0  0  0  0  0  0  0  0  0  0  0
   -0.3181   -2.9519    0.7312 O   0  0  0  0  0  0  0  0  0  0  0  0
   -1.0281   -0.9259    0.0662 N   0  0  0  0  0  0  0  0  0  0  0  0
   -1.8301   -0.3519   -0.1548 H   0  0  0  0  0  0  0  0  0  0  0  0
    0.2709   -0.2409    0.0912 C   0  0  1  0  0  0  0  0  0  0  0  0
    0.6401   -0.2261    1.1169 H   0  0  0  0  0  0  0  0  0  0  0  0
    1.2838   -1.0107   -0.7661 C   0  0  0  0  0  0  0  0  0  0  0  0
    2.2675   -0.5511   -0.6568 H   0  0  0  0  0  0  0  0  0  0  0  0
    1.3387   -2.0459   -0.4244 H   0  0  0  0  0  0  0  0  0  0  0  0
    0.9162   -0.9793   -2.1325 O   0  0  0  0  0  0  0  0  0  0  0  0
    1.6549   -1.3156   -2.6513 H   0  0  0  0  0  0  0  0  0  0  0  0
    0.1235    1.2145   -0.3831 C   0  0  0  0  0  0  0  0  0  0  0  0
    0.8858    2.0822    0.0442 O   0  0  0  0  0  0  0  0  0  0  0  0
   -0.8409    1.4838   -1.2697 N   0  0  0  0  0  0  0  0  0  0  0  0
   -1.4750    0.7277   -1.4913 H   0  0  0  0  0  0  0  0  0  0  0  0
   -1.1034    2.8046   -1.8378 C   0  0  0  0  0  0  0  0  0  0  0  0
   -0.1634    3.2699   -2.1418 H   0  0  0  0  0  0  0  0  0  0  0  0
   -1.7580    2.7176   -2.7055 H   0  0  0  0  0  0  0  0  0  0  0  0
   -1.5800    3.4382   -1.0869 H   0  0  0  0  0  0  0  0  0  0  0  0
  5  6  2  0  0  0  0
  5  7  1  0  0  0  0
  2  3  1  0  0  0  0
  2  4  1  0  0  0  0
  2  5  1  0  0  0  0
  1  2  1  0  0  0  0
 16 17  2  0  0  0  0
 16 18  1  0  0  0  0
 14 15  1  0  0  0  0
 11 12  1  0  0  0  0
 11 13  1  0  0  0  0
 11 14  1  0  0  0  0
  9 10  1  0  0  0  0
  9 11  1  0  0  0  0
  9 16  1  0  0  0  0
  7  8  1  0  0  0  0
  7  9  1  0  0  0  0
 20 21  1  0  0  0  0
 20 22  1  0  0  0  0
 20 23  1  0  0  0  0
 18 19  1  0  0  0  0
 18 20  1  0  0  0  0
M  END
$$$$
default_name
  -OEChem-01062215323D

 23 22  0     1  0  0  0  0  0999 V2000
   -2.6721   -3.7279    0.7212 H   0  0  0  0  0  0  0  0  0  0  0  0
   -2.6561   -2.6819    0.4162 C   0  0  0  0  0  0  0  0  0  0  0  0
   -3.2401   -2.0889    1.1172 H   0  0  0  0  0  0  0  0  0  0  0  0
   -3.0671   -2.5859   -0.5858 H   0  0  0  0  0  0  0  0  0  0  0  0
   -1.2261   -2.1939    0.4202 C   0  0  0  0  0  0  0  0  0  0  0  0
   -0.3181   -2.9519    0.7312 O   0  0  0  0  0  0  0  0  0  0  0  0
   -1.0281   -0.9259    0.0662 N   0  0  0  0  0  0  0  0  0  0  0  0
   -1.8301   -0.3519   -0.1548 H   0  0  0  0  0  0  0  0  0  0  0  0
    0.2709   -0.2409    0.0912 C   0  0  1  0  0  0  0  0  0  0  0  0
    0.6401   -0.2261    1.1169 H   0  0  0  0  0  0  0  0  0  0  0  0
    1.2838   -1.0107   -0.7661 C   0  0  0  0  0  0  0  0  0  0  0  0
    2.2675   -0.5511   -0.6568 H   0  0  0  0  0  0  0  0  0  0  0  0
    1.3387   -2.0459   -0.4244 H   0  0  0  0  0  0  0  0  0  0  0  0
    0.9162   -0.9793   -2.1325 O   0  0  0  0  0  0  0  0  0  0  0  0
    1.6549   -1.3156   -2.6513 H   0  0  0  0  0  0  0  0  0  0  0  0
    0.1235    1.2145   -0.3831 C   0  0  0  0  0  0  0  0  0  0  0  0
    1.0317    2.0223   -0.1851 O   0  0  0  0  0  0  0  0  0  0  0  0
   -1.0057    1.5496   -1.0165 N   0  0  0  0  0  0  0  0  0  0  0  0
   -1.7310    0.8455   -1.0503 H   0  0  0  0  0  0  0  0  0  0  0  0
   -1.2978    2.8791   -1.5489 C   0  0  0  0  0  0  0  0  0  0  0  0
   -0.4285    3.2603   -2.0890 H   0  0  0  0  0  0  0  0  0  0  0  0
   -2.1503    2.8337   -2.2272 H   0  0  0  0  0  0  0  0  0  0  0  0
   -1.5250    3.5611   -0.7269 H   0  0  0  0  0  0  0  0  0  0  0  0
  5  6  2  0  0  0  0
  5  7  1  0  0  0  0
  2  3  1  0  0  0  0
  2  4  1  0  0  0  0
  2  5  1  0  0  0  0
  1  2  1  0  0  0  0
 16 17  2  0  0  0  0
 16 18  1  0  0  0  0
 14 15  1  0  0  0  0
 11 12  1  0  0  0  0
 11 13  1  0  0  0  0
 11 14  1  0  0  0  0
  9 10  1  0  0  0  0
  9 11  1  0  0  0  0
  9 16  1  0  0  0  0
  7  8  1  0  0  0  0
  7  9  1  0  0  0  0
 20 21  1  0  0  0  0
 20 22  1  0  0  0  0
 20 23  1  0  0  0  0
 18 19  1  0  0  0  0
 18 20  1  0  0  0  0
M  END
$$$$
default_name
  -OEChem-01062215323D

 23 22  0     1  0  0  0  0  0999 V2000
   -2.6721   -3.7279    0.7212 H   0  0  0  0  0  0  0  0  0  0  0  0
   -2.6561   -2.6819    0.4162 C   0  0  0  0  0  0  0  0  0  0  0  0
   -3.2401   -2.0889    1.1172 H   0  0  0  0  0  0  0  0  0  0  0  0
   -3.0671   -2.5859   -0.5858 H   0  0  0  0  0  0  0  0  0  0  0  0
   -1.2261   -2.1939    0.4202 C   0  0  0  0  0  0  0  0  0  0  0  0
   -0.3181   -2.9519    0.7312 O   0  0  0  0  0  0  0  0  0  0  0  0
   -1.0281   -0.9259    0.0662 N   0  0  0  0  0  0  0  0  0  0  0  0
   -1.8301   -0.3519   -0.1548 H   0  0  0  0  0  0  0  0  0  0  0  0
    0.2709   -0.2409    0.0912 C   0  0  1  0  0  0  0  0  0  0  0  0
    0.6401   -0.2261    1.1169 H   0  0  0  0  0  0  0  0  0  0  0  0
    1.2838   -1.0107   -0.7661 C   0  0  0  0  0  0  0  0  0  0  0  0
    2.2675   -0.5511   -0.6568 H   0  0  0  0  0  0  0  0  0  0  0  0
    1.3387   -2.0459   -0.4244 H   0  0  0  0  0  0  0  0  0  0  0  0
    0.9162   -0.9793   -2.1325 O   0  0  0  0  0  0  0  0  0  0  0  0
    1.6549   -1.3156   -2.6513 H   0  0  0  0  0  0  0  0  0  0  0  0
    0.1235    1.2145   -0.3831 C   0  0  0  0  0  0  0  0  0  0  0  0
    1.1118    1.9471   -0.4408 O   0  0  0  0  0  0  0  0  0  0  0  0
   -1.0977    1.6326   -0.7332 N   0  0  0  0  0  0  0  0  0  0  0  0
   -1.8608    0.9907   -0.5646 H   0  0  0  0  0  0  0  0  0  0  0  0
   -1.4088    2.9737   -1.2241 C   0  0  0  0  0  0  0  0  0  0  0  0
   -0.6725    3.2734   -1.9729 H   0  0  0  0  0  0  0  0  0  0  0  0
   -2.4029    2.9891   -1.6719 H   0  0  0  0  0  0  0  0  0  0  0  0
   -1.3738    3.6843   -0.3958 H   0  0  0  0  0  0  0  0  0  0  0  0
  5  6  2  0  0  0  0
  5  7  1  0  0  0  0
  2  3  1  0  0  0  0
  2  4  1  0  0  0  0
  2  5  1  0  0  0  0
  1  2  1  0  0  0  0
 16 17  2  0  0  0  0
 16 18  1  0  0  0  0
 14 15  1  0  0  0  0
 11 12  1  0  0  0  0
 11 13  1  0  0  0  0
 11 14  1  0  0  0  0
  9 10  1  0  0  0  0
  9 11  1  0  0  0  0
  9 16  1  0  0  0  0
  7  8  1  0  0  0  0
  7  9  1  0  0  0  0
 20 21  1  0  0  0  0
 20 22  1  0  0  0  0
 20 23  1  0  0  0  0
 18 19  1  0  0  0  0
 18 20  1  0  0  0  0
M  END
$$$$
default_name
  -OEChem-01062215323D

 23 22  0     1  0  0  0  0  0999 V2000
   -2.6721   -3.7279    0.7212 H   0  0  0  0  0  0  0  0  0  0  0  0
   -2.6561   -2.6819    0.4162 C   0  0  0  0  0  0  0  0  0  0  0  0
   -3.2401   -2.0889    1.1172 H   0  0  0  0  0  0  0  0  0  0  0  0
   -3.0671   -2.5859   -0.5858 H   0  0  0  0  0  0  0  0  0  0  0  0
   -1.2261   -2.1939    0.4202 C   0  0  0  0  0  0  0  0  0  0  0  0
   -0.3181   -2.9519    0.7312 O   0  0  0  0  0  0  0  0  0  0  0  0
   -1.0281   -0.9259    0.0662 N   0  0  0  0  0  0  0  0  0  0  0  0
   -1.8301   -0.3519   -0.1548 H   0  0  0  0  0  0  0  0  0  0  0  0
    0.2709   -0.2409    0.0912 C   0  0  1  0  0  0  0  0  0  0  0  0
    0.6401   -0.2261    1.1169 H   0  0  0  0  0  0  0  0  0  0  0  0
    1.2838   -1.0107   -0.7661 C   0  0  0  0  0  0  0  0  0  0  0  0
    2.2675   -0.5511   -0.6568 H   0  0  0  0  0  0  0  0  0  0  0  0
    1.3387   -2.0459   -0.4244 H   0  0  0  0  0  0  0  0  0  0  0  0
    0.9162   -0.9793   -2.1325 O   0  0  0  0  0  0  0  0  0  0  0  0
    1.6549   -1.3156   -2.6513 H   0  0  0  0  0  0  0  0  0  0  0  0
    0.1235    1.2145   -0.3831 C   0  0  0  0  0  0  0  0  0  0  0  0
    1.1204    1.8617   -0.7056 O   0  0  0  0  0  0  0  0  0  0  0  0
   -1.1105    1.7272   -0.4390 N   0  0  0  0  0  0  0  0  0  0  0  0
   -1.8556    1.1533   -0.0671 H   0  0  0  0  0  0  0  0  0  0  0  0
   -1.4289    3.0820   -0.8856 C   0  0  0  0  0  0  0  0  0  0  0  0
   -0.8786    3.3085   -1.8013 H   0  0  0  0  0  0  0  0  0  0  0  0
   -2.4984    3.1731   -1.0776 H   0  0  0  0  0  0  0  0  0  0  0  0
   -1.1369    3.7995   -0.1160 H   0  0  0  0  0  0  0  0  0  0  0  0
  5  6  2  0  0  0  0
  5  7  1  0  0  0  0
  2  3  1  0  0  0  0
  2  4  1  0  0  0  0
  2  5  1  0  0  0  0
  1  2  1  0  0  0  0
 16 17  2  0  0  0  0
 16 18  1  0  0  0  0
 14 15  1  0  0  0  0
 11 12  1  0  0  0  0
 11 13  1  0  0  0  0
 11 14  1  0  0  0  0
  9 10  1  0  0  0  0
  9 11  1  0  0  0  0
  9 16  1  0  0  0  0
  7  8  1  0  0  0  0
  7  9  1  0  0  0  0
 20 21  1  0  0  0  0
 20 22  1  0  0  0  0
 20 23  1  0  0  0  0
 18 19  1  0  0  0  0
 18 20  1  0  0  0  0
M  END
$$$$
default_name
  -OEChem-01062215323D

 23 22  0     1  0  0  0  0  0999 V2000
   -2.6721   -3.7279    0.7212 H   0  0  0  0  0  0  0  0  0  0  0  0
   -2.6561   -2.6819    0.4162 C   0  0  0  0  0  0  0  0  0  0  0  0
   -3.2401   -2.0889    1.1172 H   0  0  0  0  0  0  0  0  0  0  0  0
   -3.0671   -2.5859   -0.5858 H   0  0  0  0  0  0  0  0  0  0  0  0
   -1.2261   -2.1939    0.4202 C   0  0  0  0  0  0  0  0  0  0  0  0
   -0.3181   -2.9519    0.7312 O   0  0  0  0  0  0  0  0  0  0  0  0
   -1.0281   -0.9259    0.0662 N   0  0  0  0  0  0  0  0  0  0  0  0
   -1.8301   -0.3519   -0.1548 H   0  0  0  0  0  0  0  0  0  0  0  0
    0.2709   -0.2409    0.0912 C   0  0  1  0  0  0  0  0  0  0  0  0
    0.6401   -0.2261    1.1169 H   0  0  0  0  0  0  0  0  0  0  0  0
    1.2838   -1.0107   -0.7661 C   0  0  0  0  0  0  0  0  0  0  0  0
    2.2675   -0.5511   -0.6568 H   0  0  0  0  0  0  0  0  0  0  0  0
    1.3387   -2.0459   -0.4244 H   0  0  0  0  0  0  0  0  0  0  0  0
    0.9162   -0.9793   -2.1325 O   0  0  0  0  0  0  0  0  0  0  0  0
    1.6549   -1.3156   -2.6513 H   0  0  0  0  0  0  0  0  0  0  0  0
    0.1235    1.2145   -0.3831 C   0  0  0  0  0  0  0  0  0  0  0  0
    1.0571    1.7719   -0.9613 O   0  0  0  0  0  0  0  0  0  0  0  0
   -1.0432    1.8268   -0.1541 N   0  0  0  0  0  0  0  0  0  0  0  0
   -1.7158    1.3223    0.4080 H   0  0  0  0  0  0  0  0  0  0  0  0
   -1.3568    3.1966   -0.5563 C   0  0  0  0  0  0  0  0  0  0  0  0
   -1.0329    3.3630   -1.5859 H   0  0  0  0  0  0  0  0  0  0  0  0
   -2.4304    3.3732   -0.4847 H   0  0  0  0  0  0  0  0  0  0  0  0
   -0.8303    3.8988    0.0934 H   0  0  0  0  0  0  0  0  0  0  0  0
  5  6  2  0  0  0  0
  5  7  1  0  0  0  0
  2  3  1  0  0  0  0
  2  4  1  0  0  0  0
  2  5  1  0  0  0  0
  1  2  1  0  0  0  0
 16 17  2  0  0  0  0
 16 18  1  0  0  0  0
 14 15  1  0  0  0  0
 11 12  1  0  0  0  0
 11 13  1  0  0  0  0
 11 14  1  0  0  0  0
  9 10  1  0  0  0  0
  9 11  1  0  0  0  0
  9 16  1  0  0  0  0
  7  8  1  0  0  0  0
  7  9  1  0  0  0  0
 20 21  1  0  0  0  0
 20 22  1  0  0  0  0
 20 23  1  0  0  0  0
 18 19  1  0  0  0  0
 18 20  1  0  0  0  0
M  END
$$$$
default_name
  -OEChem-01062215323D

 23 22  0     1  0  0  0  0  0999 V2000
   -2.6721   -3.7279    0.7212 H   0  0  0  0  0  0  0  0  0  0  0  0
   -2.6561   -2.6819    0.4162 C   0  0  0  0  0  0  0  0  0  0  0  0
   -3.2401   -2.0889    1.1172 H   0  0  0  0  0  0  0  0  0  0  0  0
   -3.0671   -2.5859   -0.5858 H   0  0  0  0  0  0  0  0  0  0  0  0
   -1.2261   -2.1939    0.4202 C   0  0  0  0  0  0  0  0  0  0  0  0
   -0.3181   -2.9519    0.7312 O   0  0  0  0  0  0  0  0  0  0  0  0
   -1.0281   -0.9259    0.0662 N   0  0  0  0  0  0  0  0  0  0  0  0
   -1.8301   -0.3519   -0.1548 H   0  0  0  0  0  0  0  0  0  0  0  0
    0.2709   -0.2409    0.0912 C   0  0  1  0  0  0  0  0  0  0  0  0
    0.6401   -0.2261    1.1169 H   0  0  0  0  0  0  0  0  0  0  0  0
    1.2838   -1.0107   -0.7661 C   0  0  0  0  0  0  0  0  0  0  0  0
    2.2675   -0.5511   -0.6568 H   0  0  0  0  0  0  0  0  0  0  0  0
    1.3387   -2.0459   -0.4244 H   0  0  0  0  0  0  0  0  0  0  0  0
    0.9162   -0.9793   -2.1325 O   0  0  0  0  0  0  0  0  0  0  0  0
    1.6549   -1.3156   -2.6513 H   0  0  0  0  0  0  0  0  0  0  0  0
    0.1235    1.2145   -0.3831 C   0  0  0  0  0  0  0  0  0  0  0  0
    0.9261    1.6839   -1.1906 O   0  0  0  0  0  0  0  0  0  0  0  0
   -0.9005    1.9248    0.1021 N   0  0  0  0  0  0  0  0  0  0  0  0
   -1.4508    1.4862    0.8285 H   0  0  0  0  0  0  0  0  0  0  0  0
   -1.1973    3.3097   -0.2587 C   0  0  0  0  0  0  0  0  0  0  0  0
   -1.1249    3.4334   -1.3414 H   0  0  0  0  0  0  0  0  0  0  0  0
   -2.2035    3.5758    0.0664 H   0  0  0  0  0  0  0  0  0  0  0  0
   -0.4749    3.9754    0.2181 H   0  0  0  0  0  0  0  0  0  0  0  0
  5  6  2  0  0  0  0
  5  7  1  0  0  0  0
  2  3  1  0  0  0  0
  2  4  1  0  0  0  0
  2  5  1  0  0  0  0
  1  2  1  0  0  0  0
 16 17  2  0  0  0  0
 16 18  1  0  0  0  0
 14 15  1  0  0  0  0
 11 12  1  0  0  0  0
 11 13  1  0  0  0  0
 11 14  1  0  0  0  0
  9 10  1  0  0  0  0
  9 11  1  0  0  0  0
  9 16  1  0  0  0  0
  7  8  1  0  0  0  0
  7  9  1  0  0  0  0
 20 21  1  0  0  0  0
 20 22  1  0  0  0  0
 20 23  1  0  0  0  0
 18 19  1  0  0  0  0
 18 20  1  0  0  0  0
M  END
$$$$
default_name
  -OEChem-01062215323D

 23 22  0     1  0  0  0  0  0999 V2000
   -2.6721   -3.7279    0.7212 H   0  0  0  0  0  0  0  0  0  0  0  0
   -2.6561   -2.6819    0.4162 C   0  0  0  0  0  0  0  0  0  0  0  0
   -3.2401   -2.0889    1.1172 H   0  0  0  0  0  0  0  0  0  0  0  0
   -3.0671   -2.5859   -0.5858 H   0  0  0  0  0  0  0  0  0  0  0  0
   -1.2261   -2.1939    0.4202 C   0  0  0  0  0  0  0  0  0  0  0  0
   -0.3181   -2.9519    0.7312 O   0  0  0  0  0  0  0  0  0  0  0  0
   -1.0281   -0.9259    0.0662 N   0  0  0  0  0  0  0  0  0  0  0  0
   -1.8301   -0.3519   -0.1548 H   0  0  0  0  0  0  0  0  0  0  0  0
    0.2709   -0.2409    0.0912 C   0  0  1  0  0  0  0  0  0  0  0  0
    0.6401   -0.2261    1.1169 H   0  0  0  0  0  0  0  0  0  0  0  0
    1.2838   -1.0107   -0.7661 C   0  0  0  0  0  0  0  0  0  0  0  0
    2.2675   -0.5511   -0.6568 H   0  0  0  0  0  0  0  0  0  0  0  0
    1.3387   -2.0459   -0.4244 H   0  0  0  0  0  0  0  0  0  0  0  0
    0.9162   -0.9793   -2.1325 O   0  0  0  0  0  0  0  0  0  0  0  0
    1.6549   -1.3156   -2.6513 H   0  0  0  0  0  0  0  0  0  0  0  0
    0.1235    1.2145   -0.3831 C   0  0  0  0  0  0  0  0  0  0  0  0
    0.7364    1.6037   -1.3778 O   0  0  0  0  0  0  0  0  0  0  0  0
   -0.6921    2.0144    0.3123 N   0  0  0  0  0  0  0  0  0  0  0  0
   -1.0788    1.6337    1.1658 H   0  0  0  0  0  0  0  0  0  0  0  0
   -0.9614    3.4136   -0.0132 C   0  0  0  0  0  0  0  0  0  0  0  0
   -1.1481    3.5148   -1.0844 H   0  0  0  0  0  0  0  0  0  0  0  0
   -1.8332    3.7670    0.5381 H   0  0  0  0  0  0  0  0  0  0  0  0
   -0.0950    4.0241    0.2495 H   0  0  0  0  0  0  0  0  0  0  0  0
  5  6  2  0  0  0  0
  5  7  1  0  0  0  0
  2  3  1  0  0  0  0
  2  4  1  0  0  0  0
  2  5  1  0  0  0  0
  1  2  1  0  0  0  0
 16 17  2  0  0  0  0
 16 18  1  0  0  0  0
 14 15  1  0  0  0  0
 11 12  1  0  0  0  0
 11 13  1  0  0  0  0
 11 14  1  0  0  0  0
  9 10  1  0  0  0  0
  9 11  1  0  0  0  0
  9 16  1  0  0  0  0
  7  8  1  0  0  0  0
  7  9  1  0  0  0  0
 20 21  1  0  0  0  0
 20 22  1  0  0  0  0
 20 23  1  0  0  0  0
 18 19  1  0  0  0  0
 18 20  1  0  0  0  0
M  END
$$$$
default_name
  -OEChem-01062215323D

 23 22  0     1  0  0  0  0  0999 V2000
   -2.6721   -3.7279    0.7212 H   0  0  0  0  0  0  0  0  0  0  0  0
   -2.6561   -2.6819    0.4162 C   0  0  0  0  0  0  0  0  0  0  0  0
   -3.2401   -2.0889    1.1172 H   0  0  0  0  0  0  0  0  0  0  0  0
   -3.0671   -2.5859   -0.5858 H   0  0  0  0  0  0  0  0  0  0  0  0
   -1.2261   -2.1939    0.4202 C   0  0  0  0  0  0  0  0  0  0  0  0
   -0.3181   -2.9519    0.7312 O   0  0  0  0  0  0  0  0  0  0  0  0
   -1.0281   -0.9259    0.0662 N   0  0  0  0  0  0  0  0  0  0  0  0
   -1.8301   -0.3519   -0.1548 H   0  0  0  0  0  0  0  0  0  0  0  0
    0.2709   -0.2409    0.0912 C   0  0  1  0  0  0  0  0  0  0  0  0
    0.6401   -0.2261    1.1169 H   0  0  0  0  0  0  0  0  0  0  0  0
    1.2838   -1.0107   -0.7661 C   0  0  0  0  0  0  0  0  0  0  0  0
    2.2675   -0.5511   -0.6568 H   0  0  0  0  0  0  0  0  0  0  0  0
    1.3387   -2.0459   -0.4244 H   0  0  0  0  0  0  0  0  0  0  0  0
    0.9162   -0.9793   -2.1325 O   0  0  0  0  0  0  0  0  0  0  0  0
    1.6549   -1.3156   -2.6513 H   0  0  0  0  0  0  0  0  0  0  0  0
    0.1235    1.2145   -0.3831 C   0  0  0  0  0  0  0  0  0  0  0  0
    0.5009    1.5367   -1.5102 O   0  0  0  0  0  0  0  0  0  0  0  0
   -0.4322    2.0895    0.4620 N   0  0  0  0  0  0  0  0  0  0  0  0
   -0.6251    1.7550    1.3967 H   0  0  0  0  0  0  0  0  0  0  0  0
   -0.6650    3.5012    0.1636 C   0  0  0  0  0  0  0  0  0  0  0  0
   -1.1012    3.6016   -0.8326 H   0  0  0  0  0  0  0  0  0  0  0  0
   -1.3447    3.9339    0.8983 H   0  0  0  0  0  0  0  0  0  0  0  0
    0.2836    4.0417    0.1857 H   0  0  0  0  0  0  0  0  0  0  0  0
  5  6  2  0  0  0  0
  5  7  1  0  0  0  0
  2  3  1  0  0  0  0
  2  4  1  0  0  0  0
  2  5  1  0  0  0  0
  1  2  1  0  0  0  0
 16 17  2  0  0  0  0
 16 18  1  0  0  0  0
 14 15  1  0  0  0  0
 11 12  1  0  0  0  0
 11 13  1  0  0  0  0
 11 14  1  0  0  0  0
  9 10  1  0  0  0  0
  9 11  1  0  0  0  0
  9 16  1  0  0  0  0
  7  8  1  0  0  0  0
  7  9  1  0  0  0  0
 20 21  1  0  0  0  0
 20 22  1  0  0  0  0
 20 23  1  0  0  0  0
 18 19  1  0  0  0  0
 18 20  1  0  0  0  0
M  END
$$$$
default_name
  -OEChem-01062215323D

 23 22  0     1  0  0  0  0  0999 V2000
   -2.6721   -3.7279    0.7212 H   0  0  0  0  0  0  0  0  0  0  0  0
   -2.6561   -2.6819    0.4162 C   0  0  0  0  0  0  0  0  0  0  0  0
   -3.2401   -2.0889    1.1172 H   0  0  0  0  0  0  0  0  0  0  0  0
   -3.0671   -2.5859   -0.5858 H   0  0  0  0  0  0  0  0  0  0  0  0
   -1.2261   -2.1939    0.4202 C   0  0  0  0  0  0  0  0  0  0  0  0
   -0.3181   -2.9519    0.7312 O   0  0  0  0  0  0  0  0  0  0  0  0
   -1.0281   -0.9259    0.0662 N   0  0  0  0  0  0  0  0  0  0  0  0
   -1.8301   -0.3519   -0.1548 H   0  0  0  0  0  0  0  0  0  0  0  0
    0.2709   -0.2409    0.0912 C   0  0  1  0  0  0  0  0  0  0  0  0
    0.6401   -0.2261    1.1169 H   0  0  0  0  0  0  0  0  0  0  0  0
    1.2838   -1.0107   -0.7661 C   0  0  0  0  0  0  0  0  0  0  0  0
    2.2675   -0.5511   -0.6568 H   0  0  0  0  0  0  0  0  0  0  0  0
    1.3387   -2.0459   -0.4244 H   0  0  0  0  0  0  0  0  0  0  0  0
    0.9162   -0.9793   -2.1325 O   0  0  0  0  0  0  0  0  0  0  0  0
    1.6549   -1.3156   -2.6513 H   0  0  0  0  0  0  0  0  0  0  0  0
    0.1235    1.2145   -0.3831 C   0  0  0  0  0  0  0  0  0  0  0  0
    0.2357    1.4875   -1.5788 O   0  0  0  0  0  0  0  0  0  0  0  0
   -0.1384    2.1450    0.5411 N   0  0  0  0  0  0  0  0  0  0  0  0
   -0.1206    1.8416    1.5057 H   0  0  0  0  0  0  0  0  0  0  0  0
   -0.3285    3.5666    0.2596 C   0  0  0  0  0  0  0  0  0  0  0  0
   -0.9872    3.6880   -0.6029 H   0  0  0  0  0  0  0  0  0  0  0  0
   -0.7713    4.0650    1.1224 H   0  0  0  0  0  0  0  0  0  0  0  0
    0.6350    4.0268    0.0308 H   0  0  0  0  0  0  0  0  0  0  0  0
  5  6  2  0  0  0  0
  5  7  1  0  0  0  0
  2  3  1  0  0  0  0
  2  4  1  0  0  0  0
  2  5  1  0  0  0  0
  1  2  1  0  0  0  0
 16 17  2  0  0  0  0
 16 18  1  0  0  0  0
 14 15  1  0  0  0  0
 11 12  1  0  0  0  0
 11 13  1  0  0  0  0
 11 14  1  0  0  0  0
  9 10  1  0  0  0  0
  9 11  1  0  0  0  0
  9 16  1  0  0  0  0
  7  8  1  0  0  0  0
  7  9  1  0  0  0  0
 20 21  1  0  0  0  0
 20 22  1  0  0  0  0
 20 23  1  0  0  0  0
 18 19  1  0  0  0  0
 18 20  1  0  0  0  0
M  END
$$$$
default_name
  -OEChem-01062215323D

 23 22  0     1  0  0  0  0  0999 V2000
   -2.6721   -3.7279    0.7212 H   0  0  0  0  0  0  0  0  0  0  0  0
   -2.6561   -2.6819    0.4162 C   0  0  0  0  0  0  0  0  0  0  0  0
   -3.2401   -2.0889    1.1172 H   0  0  0  0  0  0  0  0  0  0  0  0
   -3.0671   -2.5859   -0.5858 H   0  0  0  0  0  0  0  0  0  0  0  0
   -1.2261   -2.1939    0.4202 C   0  0  0  0  0  0  0  0  0  0  0  0
   -0.3181   -2.9519    0.7312 O   0  0  0  0  0  0  0  0  0  0  0  0
   -1.0281   -0.9259    0.0662 N   0  0  0  0  0  0  0  0  0  0  0  0
   -1.8301   -0.3519   -0.1548 H   0  0  0  0  0  0  0  0  0  0  0  0
    0.2709   -0.2409    0.0912 C   0  0  1  0  0  0  0  0  0  0  0  0
    0.6401   -0.2261    1.1169 H   0  0  0  0  0  0  0  0  0  0  0  0
    1.2838   -1.0107   -0.7661 C   0  0  0  0  0  0  0  0  0  0  0  0
    2.2675   -0.5511   -0.6568 H   0  0  0  0  0  0  0  0  0  0  0  0
    1.3387   -2.0459   -0.4244 H   0  0  0  0  0  0  0  0  0  0  0  0
    0.9162   -0.9793   -2.1325 O   0  0  0  0  0  0  0  0  0  0  0  0
    1.6549   -1.3156   -2.6513 H   0  0  0  0  0  0  0  0  0  0  0  0
    0.1235    1.2145   -0.3831 C   0  0  0  0  0  0  0  0  0  0  0  0
   -0.0412    1.4594   -1.5788 O   0  0  0  0  0  0  0  0  0  0  0  0
    0.1691    2.1772    0.5441 N   0  0  0  0  0  0  0  0  0  0  0  0
    0.4003    1.8876    1.4852 H   0  0  0  0  0  0  0  0  0  0  0  0
    0.0253    3.6053    0.2683 C   0  0  0  0  0  0  0  0  0  0  0  0
   -0.8140    3.7680   -0.4112 H   0  0  0  0  0  0  0  0  0  0  0  0
   -0.1521    4.1514    1.1952 H   0  0  0  0  0  0  0  0  0  0  0  0
    0.9353    3.9805   -0.2045 H   0  0  0  0  0  0  0  0  0  0  0  0
  5  6  2  0  0  0  0
  5  7  1  0  0  0  0
  2  3  1  0  0  0  0
  2  4  1  0  0  0  0
  2  5  1  0  0  0  0
  1  2  1  0  0  0  0
 16 17  2  0  0  0  0
 16 18  1  0  0  0  0
 14 15  1  0  0  0  0
 11 12  1  0  0  0  0
 11 13  1  0  0  0  0
 11 14  1  0  0  0  0
  9 10  1  0  0  0  0
  9 11  1  0  0  0  0
  9 16  1  0  0  0  0
  7  8  1  0  0  0  0
  7  9  1  0  0  0  0
 20 21  1  0  0  0  0
 20 22  1  0  0  0  0
 20 23  1  0  0  0  0
 18 19  1  0  0  0  0
 18 20  1  0  0  0  0
M  END
$$$$
default_name
  -OEChem-01062215323D

 23 22  0     1  0  0  0  0  0999 V2000
   -2.6721   -3.7279    0.7212 H   0  0  0  0  0  0  0  0  0  0  0  0
   -2.6561   -2.6819    0.4162 C   0  0  0  0  0  0  0  0  0  0  0  0
   -3.2401   -2.0889    1.1172 H   0  0  0  0  0  0  0  0  0  0  0  0
   -3.0671   -2.5859   -0.5858 H   0  0  0  0  0  0  0  0  0  0  0  0
   -1.2261   -2.1939    0.4202 C   0  0  0  0  0  0  0  0  0  0  0  0
   -0.3181   -2.9519    0.7312 O   0  0  0  0  0  0  0  0  0  0  0  0
   -1.0281   -0.9259    0.0662 N   0  0  0  0  0  0  0  0  0  0  0  0
   -1.8301   -0.3519   -0.1548 H   0  0  0  0  0  0  0  0  0  0  0  0
    0.2709   -0.2409    0.0912 C   0  0  1  0  0  0  0  0  0  0  0  0
    0.6401   -0.2261    1.1169 H   0  0  0  0  0  0  0  0  0  0  0  0
    1.2838   -1.0107   -0.7661 C   0  0  0  0  0  0  0  0  0  0  0  0
    2.2675   -0.5511   -0.6568 H   0  0  0  0  0  0  0  0  0  0  0  0
    1.3387   -2.0459   -0.4244 H   0  0  0  0  0  0  0  0  0  0  0  0
    0.9162   -0.9793   -2.1325 O   0  0  0  0  0  0  0  0  0  0  0  0
    1.6549   -1.3156   -2.6513 H   0  0  0  0  0  0  0  0  0  0  0  0
    0.1235    1.2145   -0.3831 C   0  0  0  0  0  0  0  0  0  0  0  0
   -0.3110    1.4544   -1.5102 O   0  0  0  0  0  0  0  0  0  0  0  0
    0.4695    2.1837    0.4709 N   0  0  0  0  0  0  0  0  0  0  0  0
    0.9021    1.8901    1.3366 H   0  0  0  0  0  0  0  0  0  0  0  0
    0.3723    3.6146    0.1891 C   0  0  0  0  0  0  0  0  0  0  0  0
   -0.5933    3.8362   -0.2704 H   0  0  0  0  0  0  0  0  0  0  0  0
    0.4708    4.1873    1.1117 H   0  0  0  0  0  0  0  0  0  0  0  0
    1.1641    3.9060   -0.5042 H   0  0  0  0  0  0  0  0  0  0  0  0
  5  6  2  0  0  0  0
  5  7  1  0  0  0  0
  2  3  1  0  0  0  0
  2  4  1  0  0  0  0
  2  5  1  0  0  0  0
  1  2  1  0  0  0  0
 16 17  2  0  0  0  0
 16 18  1  0  0  0  0
 14 15  1  0  0  0  0
 11 12  1  0  0  0  0
 11 13  1  0  0  0  0
 11 14  1  0  0  0  0
  9 10  1  0  0  0  0
  9 11  1  0  0  0  0
  9 16  1  0  0  0  0
  7  8  1  0  0  0  0
  7  9  1  0  0  0  0
 20 21  1  0  0  0  0
 20 22  1  0  0  0  0
 20 23  1  0  0  0  0
 18 19  1  0  0  0  0
 18 20  1  0  0  0  0
M  END
$$$$
default_name
  -OEChem-01062215323D

 23 22  0     1  0  0  0  0  0999 V2000
   -2.6721   -3.7279    0.7212 H   0  0  0  0  0  0  0  0  0  0  0  0
   -2.6561   -2.6819    0.4162 C   0  0  0  0  0  0  0  0  0  0  0  0
   -3.2401   -2.0889    1.1172 H   0  0  0  0  0  0  0  0  0  0  0  0
   -3.0671   -2.5859   -0.5858 H   0  0  0  0  0  0  0  0  0  0  0  0
   -1.2261   -2.1939    0.4202 C   0  0  0  0  0  0  0  0  0  0  0  0
   -0.3181   -2.9519    0.7312 O   0  0  0  0  0  0  0  0  0  0  0  0
   -1.0281   -0.9259    0.0662 N   0  0  0  0  0  0  0  0  0  0  0  0
   -1.8301   -0.3519   -0.1548 H   0  0  0  0  0  0  0  0  0  0  0  0
    0.2709   -0.2409    0.0912 C   0  0  1  0  0  0  0  0  0  0  0  0
    0.6401   -0.2261    1.1169 H   0  0  0  0  0  0  0  0  0  0  0  0
    1.2838   -1.0107   -0.7661 C   0  0  0  0  0  0  0  0  0  0  0  0
    2.2675   -0.5511   -0.6568 H   0  0  0  0  0  0  0  0  0  0  0  0
    1.3387   -2.0459   -0.4244 H   0  0  0  0  0  0  0  0  0  0  0  0
    0.9162   -0.9793   -2.1325 O   0  0  0  0  0  0  0  0  0  0  0  0
    1.6549   -1.3156   -2.6513 H   0  0  0  0  0  0  0  0  0  0  0  0
    0.1235    1.2145   -0.3831 C   0  0  0  0  0  0  0  0  0  0  0  0
   -0.5551    1.4729   -1.3779 O   0  0  0  0  0  0  0  0  0  0  0  0
    0.7422    2.1643    0.3265 N   0  0  0  0  0  0  0  0  0  0  0  0
    1.3507    1.8487    1.0702 H   0  0  0  0  0  0  0  0  0  0  0  0
    0.6888    3.5939    0.0273 C   0  0  0  0  0  0  0  0  0  0  0  0
   -0.3402    3.8880   -0.1901 H   0  0  0  0  0  0  0  0  0  0  0  0
    1.0548    4.1702    0.8775 H   0  0  0  0  0  0  0  0  0  0  0  0
    1.3057    3.8084   -0.8479 H   0  0  0  0  0  0  0  0  0  0  0  0
  5  6  2  0  0  0  0
  5  7  1  0  0  0  0
  2  3  1  0  0  0  0
  2  4  1  0  0  0  0
  2  5  1  0  0  0  0
  1  2  1  0  0  0  0
 16 17  2  0  0  0  0
 16 18  1  0  0  0  0
 14 15  1  0  0  0  0
 11 12  1  0  0  0  0
 11 13  1  0  0  0  0
 11 14  1  0  0  0  0
  9 10  1  0  0  0  0
  9 11  1  0  0  0  0
  9 16  1  0  0  0  0
  7  8  1  0  0  0  0
  7  9  1  0  0  0  0
 20 21  1  0  0  0  0
 20 22  1  0  0  0  0
 20 23  1  0  0  0  0
 18 19  1  0  0  0  0
 18 20  1  0  0  0  0
M  END
$$$$
default_name
  -OEChem-01062215323D

 23 22  0     1  0  0  0  0  0999 V2000
   -2.6721   -3.7279    0.7212 H   0  0  0  0  0  0  0  0  0  0  0  0
   -2.6561   -2.6819    0.4162 C   0  0  0  0  0  0  0  0  0  0  0  0
   -3.2401   -2.0889    1.1172 H   0  0  0  0  0  0  0  0  0  0  0  0
   -3.0671   -2.5859   -0.5858 H   0  0  0  0  0  0  0  0  0  0  0  0
   -1.2261   -2.1939    0.4202 C   0  0  0  0  0  0  0  0  0  0  0  0
   -0.3181   -2.9519    0.7312 O   0  0  0  0  0  0  0  0  0  0  0  0
   -1.0281   -0.9259    0.0662 N   0  0  0  0  0  0  0  0  0  0  0  0
   -1.8301   -0.3519   -0.1548 H   0  0  0  0  0  0  0  0  0  0  0  0
    0.2709   -0.2409    0.0912 C   0  0  1  0  0  0  0  0  0  0  0  0
    0.6401   -0.2261    1.1169 H   0  0  0  0  0  0  0  0  0  0  0  0
    1.2838   -1.0107   -0.7661 C   0  0  0  0  0  0  0  0  0  0  0  0
    2.2675   -0.5511   -0.6568 H   0  0  0  0  0  0  0  0  0  0  0  0
    1.3387   -2.0459   -0.4244 H   0  0  0  0  0  0  0  0  0  0  0  0
    0.9162   -0.9793   -2.1325 O   0  0  0  0  0  0  0  0  0  0  0  0
    1.6549   -1.3156   -2.6513 H   0  0  0  0  0  0  0  0  0  0  0  0
    0.1235    1.2145   -0.3831 C   0  0  0  0  0  0  0  0  0  0  0  0
   -0.7570    1.5134   -1.1906 O   0  0  0  0  0  0  0  0  0  0  0  0
    0.9688    2.1202    0.1206 N   0  0  0  0  0  0  0  0  0  0  0  0
    1.7153    1.7663    0.7040 H   0  0  0  0  0  0  0  0  0  0  0  0
    0.9532    3.5447   -0.2060 C   0  0  0  0  0  0  0  0  0  0  0  0
   -0.0720    3.9198   -0.1759 H   0  0  0  0  0  0  0  0  0  0  0  0
    1.5602    4.1012    0.5087 H   0  0  0  0  0  0  0  0  0  0  0  0
    1.3505    3.6942   -1.2121 H   0  0  0  0  0  0  0  0  0  0  0  0
  5  6  2  0  0  0  0
  5  7  1  0  0  0  0
  2  3  1  0  0  0  0
  2  4  1  0  0  0  0
  2  5  1  0  0  0  0
  1  2  1  0  0  0  0
 16 17  2  0  0  0  0
 16 18  1  0  0  0  0
 14 15  1  0  0  0  0
 11 12  1  0  0  0  0
 11 13  1  0  0  0  0
 11 14  1  0  0  0  0
  9 10  1  0  0  0  0
  9 11  1  0  0  0  0
  9 16  1  0  0  0  0
  7  8  1  0  0  0  0
  7  9  1  0  0  0  0
 20 21  1  0  0  0  0
 20 22  1  0  0  0  0
 20 23  1  0  0  0  0
 18 19  1  0  0  0  0
 18 20  1  0  0  0  0
M  END
$$$$
default_name
  -OEChem-01062215323D

 23 22  0     1  0  0  0  0  0999 V2000
   -2.6721   -3.7279    0.7212 H   0  0  0  0  0  0  0  0  0  0  0  0
   -2.6561   -2.6819    0.4162 C   0  0  0  0  0  0  0  0  0  0  0  0
   -3.2401   -2.0889    1.1172 H   0  0  0  0  0  0  0  0  0  0  0  0
   -3.0671   -2.5859   -0.5858 H   0  0  0  0  0  0  0  0  0  0  0  0
   -1.2261   -2.1939    0.4202 C   0  0  0  0  0  0  0  0  0  0  0  0
   -0.3181   -2.9519    0.7312 O   0  0  0  0  0  0  0  0  0  0  0  0
   -1.0281   -0.9259    0.0662 N   0  0  0  0  0  0  0  0  0  0  0  0
   -1.8301   -0.3519   -0.1548 H   0  0  0  0  0  0  0  0  0  0  0  0
    0.2709   -0.2409    0.0912 C   0  0  1  0  0  0  0  0  0  0  0  0
    0.6401   -0.2261    1.1169 H   0  0  0  0  0  0  0  0  0  0  0  0
    1.2838   -1.0107   -0.7661 C   0  0  0  0  0  0  0  0  0  0  0  0
    2.2675   -0.5511   -0.6568 H   0  0  0  0  0  0  0  0  0  0  0  0
    1.3387   -2.0459   -0.4244 H   0  0  0  0  0  0  0  0  0  0  0  0
    0.9162   -0.9793   -2.1325 O   0  0  0  0  0  0  0  0  0  0  0  0
    1.6549   -1.3156   -2.6513 H   0  0  0  0  0  0  0  0  0  0  0  0
    0.1235    1.2145   -0.3831 C   0  0  0  0  0  0  0  0  0  0  0  0
   -0.9030    1.5734   -0.9613 O   0  0  0  0  0  0  0  0  0  0  0  0
    1.1336    2.0544   -0.1326 N   0  0  0  0  0  0  0  0  0  0  0  0
    1.9713    1.6485    0.2629 H   0  0  0  0  0  0  0  0  0  0  0  0
    1.1476    3.4703   -0.4949 C   0  0  0  0  0  0  0  0  0  0  0  0
    0.1932    3.9295   -0.2286 H   0  0  0  0  0  0  0  0  0  0  0  0
    1.9526    3.9850    0.0304 H   0  0  0  0  0  0  0  0  0  0  0  0
    1.2955    3.5714   -1.5720 H   0  0  0  0  0  0  0  0  0  0  0  0
  5  6  2  0  0  0  0
  5  7  1  0  0  0  0
  2  3  1  0  0  0  0
  2  4  1  0  0  0  0
  2  5  1  0  0  0  0
  1  2  1  0  0  0  0
 16 17  2  0  0  0  0
 16 18  1  0  0  0  0
 14 15  1  0  0  0  0
 11 12  1  0  0  0  0
 11 13  1  0  0  0  0
 11 14  1  0  0  0  0
  9 10  1  0  0  0  0
  9 11  1  0  0  0  0
  9 16  1  0  0  0  0
  7  8  1  0  0  0  0
  7  9  1  0  0  0  0
 20 21  1  0  0  0  0
 20 22  1  0  0  0  0
 20 23  1  0  0  0  0
 18 19  1  0  0  0  0
 18 20  1  0  0  0  0
M  END
$$$$
default_name
  -OEChem-01062215323D

 23 22  0     1  0  0  0  0  0999 V2000
   -2.6721   -3.7279    0.7212 H   0  0  0  0  0  0  0  0  0  0  0  0
   -2.6561   -2.6819    0.4162 C   0  0  0  0  0  0  0  0  0  0  0  0
   -3.2401   -2.0889    1.1172 H   0  0  0  0  0  0  0  0  0  0  0  0
   -3.0671   -2.5859   -0.5858 H   0  0  0  0  0  0  0  0  0  0  0  0
   -1.2261   -2.1939    0.4202 C   0  0  0  0  0  0  0  0  0  0  0  0
   -0.3181   -2.9519    0.7312 O   0  0  0  0  0  0  0  0  0  0  0  0
   -1.0281   -0.9259    0.0662 N   0  0  0  0  0  0  0  0  0  0  0  0
   -1.8301   -0.3519   -0.1548 H   0  0  0  0  0  0  0  0  0  0  0  0
    0.2709   -0.2409    0.0912 C   0  0  1  0  0  0  0  0  0  0  0  0
    0.7619   -0.4542    1.0410 H   0  0  0  0  0  0  0  0  0  0  0  0
    1.1650   -0.7755   -1.0351 C   0  0  0  0  0  0  0  0  0  0  0  0
    2.1591   -0.3350   -0.9424 H   0  0  0  0  0  0  0  0  0  0  0  0
    1.2509   -1.8602   -0.9489 H   0  0  0  0  0  0  0  0  0  0  0  0
    0.6347   -0.4393   -2.3036 O   0  0  0  0  0  0  0  0  0  0  0  0
    1.3019   -0.6344   -2.9705 H   0  0  0  0  0  0  0  0  0  0  0  0
    0.0811    1.2814   -0.0157 C   0  0  0  0  0  0  0  0  0  0  0  0
   -1.0521    1.7572   -0.0947 O   0  0  0  0  0  0  0  0  0  0  0  0
    1.1784    2.0459   -0.0064 N   0  0  0  0  0  0  0  0  0  0  0  0
    2.0663    1.5624   -0.0324 H   0  0  0  0  0  0  0  0  0  0  0  0
    1.1758    3.5057   -0.0785 C   0  0  0  0  0  0  0  0  0  0  0  0
    0.4232    3.9083    0.6028 H   0  0  0  0  0  0  0  0  0  0  0  0
    2.1554    3.8977    0.1965 H   0  0  0  0  0  0  0  0  0  0  0  0
    0.9317    3.8219   -1.0948 H   0  0  0  0  0  0  0  0  0  0  0  0
  5  6  2  0  0  0  0
  5  7  1  0  0  0  0
  2  3  1  0  0  0  0
  2  4  1  0  0  0  0
  2  5  1  0  0  0  0
  1  2  1  0  0  0  0
 16 17  2  0  0  0  0
 16 18  1  0  0  0  0
 14 15  1  0  0  0  0
 11 12  1  0  0  0  0
 11 13  1  0  0  0  0
 11 14  1  0  0  0  0
  9 10  1  0  0  0  0
  9 11  1  0  0  0  0
  9 16  1  0  0  0  0
  7  8  1  0  0  0  0
  7  9  1  0  0  0  0
 20 21  1  0  0  0  0
 20 22  1  0  0  0  0
 20 23  1  0  0  0  0
 18 19  1  0  0  0  0
 18 20  1  0  0  0  0
M  END
$$$$
default_name
  -OEChem-01062215323D

 23 22  0     1  0  0  0  0  0999 V2000
   -2.6721   -3.7279    0.7212 H   0  0  0  0  0  0  0  0  0  0  0  0
   -2.6561   -2.6819    0.4162 C   0  0  0  0  0  0  0  0  0  0  0  0
   -3.2401   -2.0889    1.1172 H   0  0  0  0  0  0  0  0  0  0  0  0
   -3.0671   -2.5859   -0.5858 H   0  0  0  0  0  0  0  0  0  0  0  0
   -1.2261   -2.1939    0.4202 C   0  0  0  0  0  0  0  0  0  0  0  0
   -0.3181   -2.9519    0.7312 O   0  0  0  0  0  0  0  0  0  0  0  0
   -1.0281   -0.9259    0.0662 N   0  0  0  0  0  0  0  0  0  0  0  0
   -1.8301   -0.3519   -0.1548 H   0  0  0  0  0  0  0  0  0  0  0  0
    0.2709   -0.2409    0.0912 C   0  0  1  0  0  0  0  0  0  0  0  0
    0.7619   -0.4542    1.0410 H   0  0  0  0  0  0  0  0  0  0  0  0
    1.1650   -0.7755   -1.0351 C   0  0  0  0  0  0  0  0  0  0  0  0
    2.1591   -0.3350   -0.9424 H   0  0  0  0  0  0  0  0  0  0  0  0
    1.2509   -1.8602   -0.9489 H   0  0  0  0  0  0  0  0  0  0  0  0
    0.6347   -0.4393   -2.3036 O   0  0  0  0  0  0  0  0  0  0  0  0
    1.3019   -0.6344   -2.9705 H   0  0  0  0  0  0  0  0  0  0  0  0
    0.0811    1.2814   -0.0157 C   0  0  0  0  0  0  0  0  0  0  0  0
   -1.0277    1.7797    0.1816 O   0  0  0  0  0  0  0  0  0  0  0  0
    1.1545    2.0214   -0.3137 N   0  0  0  0  0  0  0  0  0  0  0  0
    1.9993    1.5177   -0.5495 H   0  0  0  0  0  0  0  0  0  0  0  0
    1.1537    3.4781   -0.4328 C   0  0  0  0  0  0  0  0  0  0  0  0
    0.6067    3.9172    0.4042 H   0  0  0  0  0  0  0  0  0  0  0  0
    2.1764    3.8562   -0.4312 H   0  0  0  0  0  0  0  0  0  0  0  0
    0.6615    3.7694   -1.3630 H   0  0  0  0  0  0  0  0  0  0  0  0
  5  6  2  0  0  0  0
  5  7  1  0  0  0  0
  2  3  1  0  0  0  0
  2  4  1  0  0  0  0
  2  5  1  0  0  0  0
  1  2  1  0  0  0  0
 16 17  2  0  0  0  0
 16 18  1  0  0  0  0
 14 15  1  0  0  0  0
 11 12  1  0  0  0  0
 11 13  1  0  0  0  0
 11 14  1  0  0  0  0
  9 10  1  0  0  0  0
  9 11  1  0  0  0  0
  9 16  1  0  0  0  0
  7  8  1  0  0  0  0
  7  9  1  0  0  0  0
 20 21  1  0  0  0  0
 20 22  1  0  0  0  0
 20 23  1  0  0  0  0
 18 19  1  0  0  0  0
 18 20  1  0  0  0  0
M  END
$$$$
default_name
  -OEChem-01062215323D

 23 22  0     1  0  0  0  0  0999 V2000
   -2.6721   -3.7279    0.7212 H   0  0  0  0  0  0  0  0  0  0  0  0
   -2.6561   -2.6819    0.4162 C   0  0  0  0  0  0  0  0  0  0  0  0
   -3.2401   -2.0889    1.1172 H   0  0  0  0  0  0  0  0  0  0  0  0
   -3.0671   -2.5859   -0.5858 H   0  0  0  0  0  0  0  0  0  0  0  0
   -1.2261   -2.1939    0.4202 C   0  0  0  0  0  0  0  0  0  0  0  0
   -0.3181   -2.9519    0.7312 O   0  0  0  0  0  0  0  0  0  0  0  0
   -1.0281   -0.9259    0.0662 N   0  0  0  0  0  0  0  0  0  0  0  0
   -1.8301   -0.3519   -0.1548 H   0  0  0  0  0  0  0  0  0  0  0  0
    0.2709   -0.2409    0.0912 C   0  0  1  0  0  0  0  0  0  0  0  0
    0.7619   -0.4542    1.0410 H   0  0  0  0  0  0  0  0  0  0  0  0
    1.1650   -0.7755   -1.0351 C   0  0  0  0  0  0  0  0  0  0  0  0
    2.1591   -0.3350   -0.9424 H   0  0  0  0  0  0  0  0  0  0  0  0
    1.2509   -1.8602   -0.9489 H   0  0  0  0  0  0  0  0  0  0  0  0
    0.6347   -0.4393   -2.3036 O   0  0  0  0  0  0  0  0  0  0  0  0
    1.3019   -0.6344   -2.9705 H   0  0  0  0  0  0  0  0  0  0  0  0
    0.0811    1.2814   -0.0157 C   0  0  0  0  0  0  0  0  0  0  0  0
   -0.9330    1.8097    0.4416 O   0  0  0  0  0  0  0  0  0  0  0  0
    1.0523    1.9883   -0.6037 N   0  0  0  0  0  0  0  0  0  0  0  0
    1.8013    1.4593   -1.0304 H   0  0  0  0  0  0  0  0  0  0  0  0
    1.0411    3.4405   -0.7684 C   0  0  0  0  0  0  0  0  0  0  0  0
    0.7332    3.9162    0.1651 H   0  0  0  0  0  0  0  0  0  0  0  0
    2.0351    3.7958   -1.0416 H   0  0  0  0  0  0  0  0  0  0  0  0
    0.3308    3.7149   -1.5511 H   0  0  0  0  0  0  0  0  0  0  0  0
  5  6  2  0  0  0  0
  5  7  1  0  0  0  0
  2  3  1  0  0  0  0
  2  4  1  0  0  0  0
  2  5  1  0  0  0  0
  1  2  1  0  0  0  0
 16 17  2  0  0  0  0
 16 18  1  0  0  0  0
 14 15  1  0  0  0  0
 11 12  1  0  0  0  0
 11 13  1  0  0  0  0
 11 14  1  0  0  0  0
  9 10  1  0  0  0  0
  9 11  1  0  0  0  0
  9 16  1  0  0  0  0
  7  8  1  0  0  0  0
  7  9  1  0  0  0  0
 20 21  1  0  0  0  0
 20 22  1  0  0  0  0
 20 23  1  0  0  0  0
 18 19  1  0  0  0  0
 18 20  1  0  0  0  0
M  END
$$$$
default_name
  -OEChem-01062215323D

 23 22  0     1  0  0  0  0  0999 V2000
   -2.6721   -3.7279    0.7212 H   0  0  0  0  0  0  0  0  0  0  0  0
   -2.6561   -2.6819    0.4162 C   0  0  0  0  0  0  0  0  0  0  0  0
   -3.2401   -2.0889    1.1172 H   0  0  0  0  0  0  0  0  0  0  0  0
   -3.0671   -2.5859   -0.5858 H   0  0  0  0  0  0  0  0  0  0  0  0
   -1.2261   -2.1939    0.4202 C   0  0  0  0  0  0  0  0  0  0  0  0
   -0.3181   -2.9519    0.7312 O   0  0  0  0  0  0  0  0  0  0  0  0
   -1.0281   -0.9259    0.0662 N   0  0  0  0  0  0  0  0  0  0  0  0
   -1.8301   -0.3519   -0.1548 H   0  0  0  0  0  0  0  0  0  0  0  0
    0.2709   -0.2409    0.0912 C   0  0  1  0  0  0  0  0  0  0  0  0
    0.7619   -0.4542    1.0410 H   0  0  0  0  0  0  0  0  0  0  0  0
    1.1650   -0.7755   -1.0351 C   0  0  0  0  0  0  0  0  0  0  0  0
    2.1591   -0.3350   -0.9424 H   0  0  0  0  0  0  0  0  0  0  0  0
    1.2509   -1.8602   -0.9489 H   0  0  0  0  0  0  0  0  0  0  0  0
    0.6347   -0.4393   -2.3036 O   0  0  0  0  0  0  0  0  0  0  0  0
    1.3019   -0.6344   -2.9705 H   0  0  0  0  0  0  0  0  0  0  0  0
    0.0811    1.2814   -0.0157 C   0  0  0  0  0  0  0  0  0  0  0  0
   -0.7744    1.8454    0.6676 O   0  0  0  0  0  0  0  0  0  0  0  0
    0.8786    1.9489   -0.8565 N   0  0  0  0  0  0  0  0  0  0  0  0
    1.4857    1.3910   -1.4423 H   0  0  0  0  0  0  0  0  0  0  0  0
    0.8456    3.3955   -1.0626 C   0  0  0  0  0  0  0  0  0  0  0  0
    0.7941    3.9053   -0.0982 H   0  0  0  0  0  0  0  0  0  0  0  0
    1.7411    3.7204   -1.5931 H   0  0  0  0  0  0  0  0  0  0  0  0
   -0.0378    3.6623   -1.6464 H   0  0  0  0  0  0  0  0  0  0  0  0
  5  6  2  0  0  0  0
  5  7  1  0  0  0  0
  2  3  1  0  0  0  0
  2  4  1  0  0  0  0
  2  5  1  0  0  0  0
  1  2  1  0  0  0  0
 16 17  2  0  0  0  0
 16 18  1  0  0  0  0
 14 15  1  0  0  0  0
 11 12  1  0  0  0  0
 11 13  1  0  0  0  0
 11 14  1  0  0  0  0
  9 10  1  0  0  0  0
  9 11  1  0  0  0  0
  9 16  1  0  0  0  0
  7  8  1  0  0  0  0
  7  9  1  0  0  0  0
 20 21  1  0  0  0  0
 20 22  1  0  0  0  0
 20 23  1  0  0  0  0
 18 19  1  0  0  0  0
 18 20  1  0  0  0  0
M  END
$$$$
default_name
  -OEChem-01062215323D

 23 22  0     1  0  0  0  0  0999 V2000
   -2.6721   -3.7279    0.7212 H   0  0  0  0  0  0  0  0  0  0  0  0
   -2.6561   -2.6819    0.4162 C   0  0  0  0  0  0  0  0  0  0  0  0
   -3.2401   -2.0889    1.1172 H   0  0  0  0  0  0  0  0  0  0  0  0
   -3.0671   -2.5859   -0.5858 H   0  0  0  0  0  0  0  0  0  0  0  0
   -1.2261   -2.1939    0.4202 C   0  0  0  0  0  0  0  0  0  0  0  0
   -0.3181   -2.9519    0.7312 O   0  0  0  0  0  0  0  0  0  0  0  0
   -1.0281   -0.9259    0.0662 N   0  0  0  0  0  0  0  0  0  0  0  0
   -1.8301   -0.3519   -0.1548 H   0  0  0  0  0  0  0  0  0  0  0  0
    0.2709   -0.2409    0.0912 C   0  0  1  0  0  0  0  0  0  0  0  0
    0.7619   -0.4542    1.0410 H   0  0  0  0  0  0  0  0  0  0  0  0
    1.1650   -0.7755   -1.0351 C   0  0  0  0  0  0  0  0  0  0  0  0
    2.1591   -0.3350   -0.9424 H   0  0  0  0  0  0  0  0  0  0  0  0
    1.2509   -1.8602   -0.9489 H   0  0  0  0  0  0  0  0  0  0  0  0
    0.6347   -0.4393   -2.3036 O   0  0  0  0  0  0  0  0  0  0  0  0
    1.3019   -0.6344   -2.9705 H   0  0  0  0  0  0  0  0  0  0  0  0
    0.0811    1.2814   -0.0157 C   0  0  0  0  0  0  0  0  0  0  0  0
   -0.5626    1.8842    0.8440 O   0  0  0  0  0  0  0  0  0  0  0  0
    0.6454    1.9059   -1.0550 N   0  0  0  0  0  0  0  0  0  0  0  0
    1.0742    1.3176   -1.7572 H   0  0  0  0  0  0  0  0  0  0  0  0
    0.5807    3.3461   -1.2952 C   0  0  0  0  0  0  0  0  0  0  0  0
    0.7853    3.8853   -0.3678 H   0  0  0  0  0  0  0  0  0  0  0  0
    1.3145    3.6353   -2.0480 H   0  0  0  0  0  0  0  0  0  0  0  0
   -0.4192    3.6150   -1.6423 H   0  0  0  0  0  0  0  0  0  0  0  0
  5  6  2  0  0  0  0
  5  7  1  0  0  0  0
  2  3  1  0  0  0  0
  2  4  1  0  0  0  0
  2  5  1  0  0  0  0
  1  2  1  0  0  0  0
 16 17  2  0  0  0  0
 16 18  1  0  0  0  0
 14 15  1  0  0  0  0
 11 12  1  0  0  0  0
 11 13  1  0  0  0  0
 11 14  1  0  0  0  0
  9 10  1  0  0  0  0
  9 11  1  0  0  0  0
  9 16  1  0  0  0  0
  7  8  1  0  0  0  0
  7  9  1  0  0  0  0
 20 21  1  0  0  0  0
 20 22  1  0  0  0  0
 20 23  1  0  0  0  0
 18 19  1  0  0  0  0
 18 20  1  0  0  0  0
M  END
$$$$
default_name
  -OEChem-01062215323D

 23 22  0     1  0  0  0  0  0999 V2000
   -2.6721   -3.7279    0.7212 H   0  0  0  0  0  0  0  0  0  0  0  0
   -2.6561   -2.6819    0.4162 C   0  0  0  0  0  0  0  0  0  0  0  0
   -3.2401   -2.0889    1.1172 H   0  0  0  0  0  0  0  0  0  0  0  0
   -3.0671   -2.5859   -0.5858 H   0  0  0  0  0  0  0  0  0  0  0  0
   -1.2261   -2.1939    0.4202 C   0  0  0  0  0  0  0  0  0  0  0  0
   -0.3181   -2.9519    0.7312 O   0  0  0  0  0  0  0  0  0  0  0  0
   -1.0281   -0.9259    0.0662 N   0  0  0  0  0  0  0  0  0  0  0  0
   -1.8301   -0.3519   -0.1548 H   0  0  0  0  0  0  0  0  0  0  0  0
    0.2709   -0.2409    0.0912 C   0  0  1  0  0  0  0  0  0  0  0  0
    0.7619   -0.4542    1.0410 H   0  0  0  0  0  0  0  0  0  0  0  0
    1.1650   -0.7755   -1.0351 C   0  0  0  0  0  0  0  0  0  0  0  0
    2.1591   -0.3350   -0.9424 H   0  0  0  0  0  0  0  0  0  0  0  0
    1.2509   -1.8602   -0.9489 H   0  0  0  0  0  0  0  0  0  0  0  0
    0.6347   -0.4393   -2.3036 O   0  0  0  0  0  0  0  0  0  0  0  0
    1.3019   -0.6344   -2.9705 H   0  0  0  0  0  0  0  0  0  0  0  0
    0.0811    1.2814   -0.0157 C   0  0  0  0  0  0  0  0  0  0  0  0
   -0.3122    1.9234    0.9589 O   0  0  0  0  0  0  0  0  0  0  0  0
    0.3685    1.8622   -1.1856 N   0  0  0  0  0  0  0  0  0  0  0  0
    0.5947    1.2441   -1.9535 H   0  0  0  0  0  0  0  0  0  0  0  0
    0.2642    3.2958   -1.4505 C   0  0  0  0  0  0  0  0  0  0  0  0
    0.7073    3.8575   -0.6254 H   0  0  0  0  0  0  0  0  0  0  0  0
    0.7844    3.5462   -2.3755 H   0  0  0  0  0  0  0  0  0  0  0  0
   -0.7873    3.5764   -1.5391 H   0  0  0  0  0  0  0  0  0  0  0  0
  5  6  2  0  0  0  0
  5  7  1  0  0  0  0
  2  3  1  0  0  0  0
  2  4  1  0  0  0  0
  2  5  1  0  0  0  0
  1  2  1  0  0  0  0
 16 17  2  0  0  0  0
 16 18  1  0  0  0  0
 14 15  1  0  0  0  0
 11 12  1  0  0  0  0
 11 13  1  0  0  0  0
 11 14  1  0  0  0  0
  9 10  1  0  0  0  0
  9 11  1  0  0  0  0
  9 16  1  0  0  0  0
  7  8  1  0  0  0  0
  7  9  1  0  0  0  0
 20 21  1  0  0  0  0
 20 22  1  0  0  0  0
 20 23  1  0  0  0  0
 18 19  1  0  0  0  0
 18 20  1  0  0  0  0
M  END
$$$$
default_name
  -OEChem-01062215323D

 23 22  0     1  0  0  0  0  0999 V2000
   -2.6721   -3.7279    0.7212 H   0  0  0  0  0  0  0  0  0  0  0  0
   -2.6561   -2.6819    0.4162 C   0  0  0  0  0  0  0  0  0  0  0  0
   -3.2401   -2.0889    1.1172 H   0  0  0  0  0  0  0  0  0  0  0  0
   -3.0671   -2.5859   -0.5858 H   0  0  0  0  0  0  0  0  0  0  0  0
   -1.2261   -2.1939    0.4202 C   0  0  0  0  0  0  0  0  0  0  0  0
   -0.3181   -2.9519    0.7312 O   0  0  0  0  0  0  0  0  0  0  0  0
   -1.0281   -0.9259    0.0662 N   0  0  0  0  0  0  0  0  0  0  0  0
   -1.8301   -0.3519   -0.1548 H   0  0  0  0  0  0  0  0  0  0  0  0
    0.2709   -0.2409    0.0912 C   0  0  1  0  0  0  0  0  0  0  0  0
    0.7619   -0.4542    1.0410 H   0  0  0  0  0  0  0  0  0  0  0  0
    1.1650   -0.7755   -1.0351 C   0  0  0  0  0  0  0  0  0  0  0  0
    2.1591   -0.3350   -0.9424 H   0  0  0  0  0  0  0  0  0  0  0  0
    1.2509   -1.8602   -0.9489 H   0  0  0  0  0  0  0  0  0  0  0  0
    0.6347   -0.4393   -2.3036 O   0  0  0  0  0  0  0  0  0  0  0  0
    1.3019   -0.6344   -2.9705 H   0  0  0  0  0  0  0  0  0  0  0  0
    0.0811    1.2814   -0.0157 C   0  0  0  0  0  0  0  0  0  0  0  0
   -0.0401    1.9606    1.0045 O   0  0  0  0  0  0  0  0  0  0  0  0
    0.0668    1.8208   -1.2394 N   0  0  0  0  0  0  0  0  0  0  0  0
    0.0799    1.1754   -2.0179 H   0  0  0  0  0  0  0  0  0  0  0  0
   -0.0821    3.2479   -1.5178 C   0  0  0  0  0  0  0  0  0  0  0  0
    0.5656    3.8238   -0.8533 H   0  0  0  0  0  0  0  0  0  0  0  0
    0.1868    3.4592   -2.5531 H   0  0  0  0  0  0  0  0  0  0  0  0
   -1.1172    3.5490   -1.3439 H   0  0  0  0  0  0  0  0  0  0  0  0
  5  6  2  0  0  0  0
  5  7  1  0  0  0  0
  2  3  1  0  0  0  0
  2  4  1  0  0  0  0
  2  5  1  0  0  0  0
  1  2  1  0  0  0  0
 16 17  2  0  0  0  0
 16 18  1  0  0  0  0
 14 15  1  0  0  0  0
 11 12  1  0  0  0  0
 11 13  1  0  0  0  0
 11 14  1  0  0  0  0
  9 10  1  0  0  0  0
  9 11  1  0  0  0  0
  9 16  1  0  0  0  0
  7  8  1  0  0  0  0
  7  9  1  0  0  0  0
 20 21  1  0  0  0  0
 20 22  1  0  0  0  0
 20 23  1  0  0  0  0
 18 19  1  0  0  0  0
 18 20  1  0  0  0  0
M  END
$$$$
default_name
  -OEChem-01062215323D

 23 22  0     1  0  0  0  0  0999 V2000
   -2.6721   -3.7279    0.7212 H   0  0  0  0  0  0  0  0  0  0  0  0
   -2.6561   -2.6819    0.4162 C   0  0  0  0  0  0  0  0  0  0  0  0
   -3.2401   -2.0889    1.1172 H   0  0  0  0  0  0  0  0  0  0  0  0
   -3.0671   -2.5859   -0.5858 H   0  0  0  0  0  0  0  0  0  0  0  0
   -1.2261   -2.1939    0.4202 C   0  0  0  0  0  0  0  0  0  0  0  0
   -0.3181   -2.9519    0.7312 O   0  0  0  0  0  0  0  0  0  0  0  0
   -1.0281   -0.9259    0.0662 N   0  0  0  0  0  0  0  0  0  0  0  0
   -1.8301   -0.3519   -0.1548 H   0  0  0  0  0  0  0  0  0  0  0  0
    0.2709   -0.2409    0.0912 C   0  0  1  0  0  0  0  0  0  0  0  0
    0.7619   -0.4542    1.0410 H   0  0  0  0  0  0  0  0  0  0  0  0
    1.1650   -0.7755   -1.0351 C   0  0  0  0  0  0  0  0  0  0  0  0
    2.1591   -0.3350   -0.9424 H   0  0  0  0  0  0  0  0  0  0  0  0
    1.2509   -1.8602   -0.9489 H   0  0  0  0  0  0  0  0  0  0  0  0
    0.6347   -0.4393   -2.3036 O   0  0  0  0  0  0  0  0  0  0  0  0
    1.3019   -0.6344   -2.9705 H   0  0  0  0  0  0  0  0  0  0  0  0
    0.0811    1.2814   -0.0157 C   0  0  0  0  0  0  0  0  0  0  0  0
    0.2350    1.9930    0.9776 O   0  0  0  0  0  0  0  0  0  0  0  0
   -0.2391    1.7845   -1.2127 N   0  0  0  0  0  0  0  0  0  0  0  0
   -0.4351    1.1162   -1.9461 H   0  0  0  0  0  0  0  0  0  0  0  0
   -0.4347    3.2057   -1.4925 C   0  0  0  0  0  0  0  0  0  0  0  0
    0.3696    3.7865   -1.0360 H   0  0  0  0  0  0  0  0  0  0  0  0
   -0.4375    3.3803   -2.5688 H   0  0  0  0  0  0  0  0  0  0  0  0
   -1.3864    3.5346   -1.0699 H   0  0  0  0  0  0  0  0  0  0  0  0
  5  6  2  0  0  0  0
  5  7  1  0  0  0  0
  2  3  1  0  0  0  0
  2  4  1  0  0  0  0
  2  5  1  0  0  0  0
  1  2  1  0  0  0  0
 16 17  2  0  0  0  0
 16 18  1  0  0  0  0
 14 15  1  0  0  0  0
 11 12  1  0  0  0  0
 11 13  1  0  0  0  0
 11 14  1  0  0  0  0
  9 10  1  0  0  0  0
  9 11  1  0  0  0  0
  9 16  1  0  0  0  0
  7  8  1  0  0  0  0
  7  9  1  0  0  0  0
 20 21  1  0  0  0  0
 20 22  1  0  0  0  0
 20 23  1  0  0  0  0
 18 19  1  0  0  0  0
 18 20  1  0  0  0  0
M  END
$$$$
default_name
  -OEChem-01062215323D

 23 22  0     1  0  0  0  0  0999 V2000
   -2.6721   -3.7279    0.7212 H   0  0  0  0  0  0  0  0  0  0  0  0
   -2.6561   -2.6819    0.4162 C   0  0  0  0  0  0  0  0  0  0  0  0
   -3.2401   -2.0889    1.1172 H   0  0  0  0  0  0  0  0  0  0  0  0
   -3.0671   -2.5859   -0.5858 H   0  0  0  0  0  0  0  0  0  0  0  0
   -1.2261   -2.1939    0.4202 C   0  0  0  0  0  0  0  0  0  0  0  0
   -0.3181   -2.9519    0.7312 O   0  0  0  0  0  0  0  0  0  0  0  0
   -1.0281   -0.9259    0.0662 N   0  0  0  0  0  0  0  0  0  0  0  0
   -1.8301   -0.3519   -0.1548 H   0  0  0  0  0  0  0  0  0  0  0  0
    0.2709   -0.2409    0.0912 C   0  0  1  0  0  0  0  0  0  0  0  0
    0.7619   -0.4542    1.0410 H   0  0  0  0  0  0  0  0  0  0  0  0
    1.1650   -0.7755   -1.0351 C   0  0  0  0  0  0  0  0  0  0  0  0
    2.1591   -0.3350   -0.9424 H   0  0  0  0  0  0  0  0  0  0  0  0
    1.2509   -1.8602   -0.9489 H   0  0  0  0  0  0  0  0  0  0  0  0
    0.6347   -0.4393   -2.3036 O   0  0  0  0  0  0  0  0  0  0  0  0
    1.3019   -0.6344   -2.9705 H   0  0  0  0  0  0  0  0  0  0  0  0
    0.0811    1.2814   -0.0157 C   0  0  0  0  0  0  0  0  0  0  0  0
    0.4945    2.0185    0.8802 O   0  0  0  0  0  0  0  0  0  0  0  0
   -0.5285    1.7558   -1.1074 N   0  0  0  0  0  0  0  0  0  0  0  0
   -0.9153    1.0706   -1.7428 H   0  0  0  0  0  0  0  0  0  0  0  0
   -0.7696    3.1721   -1.3764 C   0  0  0  0  0  0  0  0  0  0  0  0
    0.1328    3.7482   -1.1612 H   0  0  0  0  0  0  0  0  0  0  0  0
   -1.0459    3.3148   -2.4214 H   0  0  0  0  0  0  0  0  0  0  0  0
   -1.5764    3.5344   -0.7359 H   0  0  0  0  0  0  0  0  0  0  0  0
  5  6  2  0  0  0  0
  5  7  1  0  0  0  0
  2  3  1  0  0  0  0
  2  4  1  0  0  0  0
  2  5  1  0  0  0  0
  1  2  1  0  0  0  0
 16 17  2  0  0  0  0
 16 18  1  0  0  0  0
 14 15  1  0  0  0  0
 11 12  1  0  0  0  0
 11 13  1  0  0  0  0
 11 14  1  0  0  0  0
  9 10  1  0  0  0  0
  9 11  1  0  0  0  0
  9 16  1  0  0  0  0
  7  8  1  0  0  0  0
  7  9  1  0  0  0  0
 20 21  1  0  0  0  0
 20 22  1  0  0  0  0
 20 23  1  0  0  0  0
 18 19  1  0  0  0  0
 18 20  1  0  0  0  0
M  END
$$$$
default_name
  -OEChem-01062215323D

 23 22  0     1  0  0  0  0  0999 V2000
   -2.6721   -3.7279    0.7212 H   0  0  0  0  0  0  0  0  0  0  0  0
   -2.6561   -2.6819    0.4162 C   0  0  0  0  0  0  0  0  0  0  0  0
   -3.2401   -2.0889    1.1172 H   0  0  0  0  0  0  0  0  0  0  0  0
   -3.0671   -2.5859   -0.5858 H   0  0  0  0  0  0  0  0  0  0  0  0
   -1.2261   -2.1939    0.4202 C   0  0  0  0  0  0  0  0  0  0  0  0
   -0.3181   -2.9519    0.7312 O   0  0  0  0  0  0  0  0  0  0  0  0
   -1.0281   -0.9259    0.0662 N   0  0  0  0  0  0  0  0  0  0  0  0
   -1.8301   -0.3519   -0.1548 H   0  0  0  0  0  0  0  0  0  0  0  0
    0.2709   -0.2409    0.0912 C   0  0  1  0  0  0  0  0  0  0  0  0
    0.7619   -0.4542    1.0410 H   0  0  0  0  0  0  0  0  0  0  0  0
    1.1650   -0.7755   -1.0351 C   0  0  0  0  0  0  0  0  0  0  0  0
    2.1591   -0.3350   -0.9424 H   0  0  0  0  0  0  0  0  0  0  0  0
    1.2509   -1.8602   -0.9489 H   0  0  0  0  0  0  0  0  0  0  0  0
    0.6347   -0.4393   -2.3036 O   0  0  0  0  0  0  0  0  0  0  0  0
    1.3019   -0.6344   -2.9705 H   0  0  0  0  0  0  0  0  0  0  0  0
    0.0811    1.2814   -0.0157 C   0  0  0  0  0  0  0  0  0  0  0  0
    0.7206    2.0353    0.7187 O   0  0  0  0  0  0  0  0  0  0  0  0
   -0.7815    1.7367   -0.9307 N   0  0  0  0  0  0  0  0  0  0  0  0
   -1.3278    1.0417   -1.4221 H   0  0  0  0  0  0  0  0  0  0  0  0
   -1.0639    3.1494   -1.1773 C   0  0  0  0  0  0  0  0  0  0  0  0
   -0.1286    3.7115   -1.2201 H   0  0  0  0  0  0  0  0  0  0  0  0
   -1.5971    3.2672   -2.1212 H   0  0  0  0  0  0  0  0  0  0  0  0
   -1.6743    3.5483   -0.3645 H   0  0  0  0  0  0  0  0  0  0  0  0
  5  6  2  0  0  0  0
  5  7  1  0  0  0  0
  2  3  1  0  0  0  0
  2  4  1  0  0  0  0
  2  5  1  0  0  0  0
  1  2  1  0  0  0  0
 16 17  2  0  0  0  0
 16 18  1  0  0  0  0
 14 15  1  0  0  0  0
 11 12  1  0  0  0  0
 11 13  1  0  0  0  0
 11 14  1  0  0  0  0
  9 10  1  0  0  0  0
  9 11  1  0  0  0  0
  9 16  1  0  0  0  0
  7  8  1  0  0  0  0
  7  9  1  0  0  0  0
 20 21  1  0  0  0  0
 20 22  1  0  0  0  0
 20 23  1  0  0  0  0
 18 19  1  0  0  0  0
 18 20  1  0  0  0  0
M  END
$$$$
default_name
  -OEChem-01062215323D

 23 22  0     1  0  0  0  0  0999 V2000
   -2.6721   -3.7279    0.7212 H   0  0  0  0  0  0  0  0  0  0  0  0
   -2.6561   -2.6819    0.4162 C   0  0  0  0  0  0  0  0  0  0  0  0
   -3.2401   -2.0889    1.1172 H   0  0  0  0  0  0  0  0  0  0  0  0
   -3.0671   -2.5859   -0.5858 H   0  0  0  0  0  0  0  0  0  0  0  0
   -1.2261   -2.1939    0.4202 C   0  0  0  0  0  0  0  0  0  0  0  0
   -0.3181   -2.9519    0.7312 O   0  0  0  0  0  0  0  0  0  0  0  0
   -1.0281   -0.9259    0.0662 N   0  0  0  0  0  0  0  0  0  0  0  0
   -1.8301   -0.3519   -0.1548 H   0  0  0  0  0  0  0  0  0  0  0  0
    0.2709   -0.2409    0.0912 C   0  0  1  0  0  0  0  0  0  0  0  0
    0.7619   -0.4542    1.0410 H   0  0  0  0  0  0  0  0  0  0  0  0
    1.1650   -0.7755   -1.0351 C   0  0  0  0  0  0  0  0  0  0  0  0
    2.1591   -0.3350   -0.9424 H   0  0  0  0  0  0  0  0  0  0  0  0
    1.2509   -1.8602   -0.9489 H   0  0  0  0  0  0  0  0  0  0  0  0
    0.6347   -0.4393   -2.3036 O   0  0  0  0  0  0  0  0  0  0  0  0
    1.3019   -0.6344   -2.9705 H   0  0  0  0  0  0  0  0  0  0  0  0
    0.0811    1.2814   -0.0157 C   0  0  0  0  0  0  0  0  0  0  0  0
    0.8979    2.0424    0.5043 O   0  0  0  0  0  0  0  0  0  0  0  0
   -0.9809    1.7284   -0.6945 N   0  0  0  0  0  0  0  0  0  0  0  0
   -1.6445    1.0315   -1.0056 H   0  0  0  0  0  0  0  0  0  0  0  0
   -1.2977    3.1391   -0.9089 C   0  0  0  0  0  0  0  0  0  0  0  0
   -0.3969    3.6788   -1.2089 H   0  0  0  0  0  0  0  0  0  0  0  0
   -2.0534    3.2407   -1.6884 H   0  0  0  0  0  0  0  0  0  0  0  0
   -1.6736    3.5753    0.0189 H   0  0  0  0  0  0  0  0  0  0  0  0
  5  6  2  0  0  0  0
  5  7  1  0  0  0  0
  2  3  1  0  0  0  0
  2  4  1  0  0  0  0
  2  5  1  0  0  0  0
  1  2  1  0  0  0  0
 16 17  2  0  0  0  0
 16 18  1  0  0  0  0
 14 15  1  0  0  0  0
 11 12  1  0  0  0  0
 11 13  1  0  0  0  0
 11 14  1  0  0  0  0
  9 10  1  0  0  0  0
  9 11  1  0  0  0  0
  9 16  1  0  0  0  0
  7  8  1  0  0  0  0
  7  9  1  0  0  0  0
 20 21  1  0  0  0  0
 20 22  1  0  0  0  0
 20 23  1  0  0  0  0
 18 19  1  0  0  0  0
 18 20  1  0  0  0  0
M  END
$$$$
default_name
  -OEChem-01062215323D

 23 22  0     1  0  0  0  0  0999 V2000
   -2.6721   -3.7279    0.7212 H   0  0  0  0  0  0  0  0  0  0  0  0
   -2.6561   -2.6819    0.4162 C   0  0  0  0  0  0  0  0  0  0  0  0
   -3.2401   -2.0889    1.1172 H   0  0  0  0  0  0  0  0  0  0  0  0
   -3.0671   -2.5859   -0.5858 H   0  0  0  0  0  0  0  0  0  0  0  0
   -1.2261   -2.1939    0.4202 C   0  0  0  0  0  0  0  0  0  0  0  0
   -0.3181   -2.9519    0.7312 O   0  0  0  0  0  0  0  0  0  0  0  0
   -1.0281   -0.9259    0.0662 N   0  0  0  0  0  0  0  0  0  0  0  0
   -1.8301   -0.3519   -0.1548 H   0  0  0  0  0  0  0  0  0  0  0  0
    0.2709   -0.2409    0.0912 C   0  0  1  0  0  0  0  0  0  0  0  0
    0.7619   -0.4542    1.0410 H   0  0  0  0  0  0  0  0  0  0  0  0
    1.1650   -0.7755   -1.0351 C   0  0  0  0  0  0  0  0  0  0  0  0
    2.1591   -0.3350   -0.9424 H   0  0  0  0  0  0  0  0  0  0  0  0
    1.2509   -1.8602   -0.9489 H   0  0  0  0  0  0  0  0  0  0  0  0
    0.6347   -0.4393   -2.3036 O   0  0  0  0  0  0  0  0  0  0  0  0
    1.3019   -0.6344   -2.9705 H   0  0  0  0  0  0  0  0  0  0  0  0
    0.0811    1.2814   -0.0157 C   0  0  0  0  0  0  0  0  0  0  0  0
    1.0144    2.0392    0.2516 O   0  0  0  0  0  0  0  0  0  0  0  0
   -1.1132    1.7315   -0.4150 N   0  0  0  0  0  0  0  0  0  0  0  0
   -1.8440    1.0406   -0.5219 H   0  0  0  0  0  0  0  0  0  0  0  0
   -1.4548    3.1419   -0.5895 C   0  0  0  0  0  0  0  0  0  0  0  0
   -0.6538    3.6525   -1.1283 H   0  0  0  0  0  0  0  0  0  0  0  0
   -2.3837    3.2371   -1.1526 H   0  0  0  0  0  0  0  0  0  0  0  0
   -1.5741    3.6136    0.3881 H   0  0  0  0  0  0  0  0  0  0  0  0
  5  6  2  0  0  0  0
  5  7  1  0  0  0  0
  2  3  1  0  0  0  0
  2  4  1  0  0  0  0
  2  5  1  0  0  0  0
  1  2  1  0  0  0  0
 16 17  2  0  0  0  0
 16 18  1  0  0  0  0
 14 15  1  0  0  0  0
 11 12  1  0  0  0  0
 11 13  1  0  0  0  0
 11 14  1  0  0  0  0
  9 10  1  0  0  0  0
  9 11  1  0  0  0  0
  9 16  1  0  0  0  0
  7  8  1  0  0  0  0
  7  9  1  0  0  0  0
 20 21  1  0  0  0  0
 20 22  1  0  0  0  0
 20 23  1  0  0  0  0
 18 19  1  0  0  0  0
 18 20  1  0  0  0  0
M  END
$$$$
default_name
  -OEChem-01062215323D

 23 22  0     1  0  0  0  0  0999 V2000
   -2.6721   -3.7279    0.7212 H   0  0  0  0  0  0  0  0  0  0  0  0
   -2.6561   -2.6819    0.4162 C   0  0  0  0  0  0  0  0  0  0  0  0
   -3.2401   -2.0889    1.1172 H   0  0  0  0  0  0  0  0  0  0  0  0
   -3.0671   -2.5859   -0.5858 H   0  0  0  0  0  0  0  0  0  0  0  0
   -1.2261   -2.1939    0.4202 C   0  0  0  0  0  0  0  0  0  0  0  0
   -0.3181   -2.9519    0.7312 O   0  0  0  0  0  0  0  0  0  0  0  0
   -1.0281   -0.9259    0.0662 N   0  0  0  0  0  0  0  0  0  0  0  0
   -1.8301   -0.3519   -0.1548 H   0  0  0  0  0  0  0  0  0  0  0  0
    0.2709   -0.2409    0.0912 C   0  0  1  0  0  0  0  0  0  0  0  0
    0.7619   -0.4542    1.0410 H   0  0  0  0  0  0  0  0  0  0  0  0
    1.1650   -0.7755   -1.0351 C   0  0  0  0  0  0  0  0  0  0  0  0
    2.1591   -0.3350   -0.9424 H   0  0  0  0  0  0  0  0  0  0  0  0
    1.2509   -1.8602   -0.9489 H   0  0  0  0  0  0  0  0  0  0  0  0
    0.6347   -0.4393   -2.3036 O   0  0  0  0  0  0  0  0  0  0  0  0
    1.3019   -0.6344   -2.9705 H   0  0  0  0  0  0  0  0  0  0  0  0
    0.0811    1.2814   -0.0157 C   0  0  0  0  0  0  0  0  0  0  0  0
    1.0621    2.0259   -0.0223 O   0  0  0  0  0  0  0  0  0  0  0  0
   -1.1694    1.7459   -0.1113 N   0  0  0  0  0  0  0  0  0  0  0  0
   -1.9126    1.0684   -0.0038 H   0  0  0  0  0  0  0  0  0  0  0  0
   -1.5248    3.1577   -0.2407 C   0  0  0  0  0  0  0  0  0  0  0  0
   -0.8818    3.6342   -0.9838 H   0  0  0  0  0  0  0  0  0  0  0  0
   -2.5656    3.2567   -0.5503 H   0  0  0  0  0  0  0  0  0  0  0  0
   -1.3828    3.6606    0.7181 H   0  0  0  0  0  0  0  0  0  0  0  0
  5  6  2  0  0  0  0
  5  7  1  0  0  0  0
  2  3  1  0  0  0  0
  2  4  1  0  0  0  0
  2  5  1  0  0  0  0
  1  2  1  0  0  0  0
 16 17  2  0  0  0  0
 16 18  1  0  0  0  0
 14 15  1  0  0  0  0
 11 12  1  0  0  0  0
 11 13  1  0  0  0  0
 11 14  1  0  0  0  0
  9 10  1  0  0  0  0
  9 11  1  0  0  0  0
  9 16  1  0  0  0  0
  7  8  1  0  0  0  0
  7  9  1  0  0  0  0
 20 21  1  0  0  0  0
 20 22  1  0  0  0  0
 20 23  1  0  0  0  0
 18 19  1  0  0  0  0
 18 20  1  0  0  0  0
M  END
$$$$
default_name
  -OEChem-01062215323D

 23 22  0     1  0  0  0  0  0999 V2000
   -2.6721   -3.7279    0.7212 H   0  0  0  0  0  0  0  0  0  0  0  0
   -2.6561   -2.6819    0.4162 C   0  0  0  0  0  0  0  0  0  0  0  0
   -3.2401   -2.0889    1.1172 H   0  0  0  0  0  0  0  0  0  0  0  0
   -3.0671   -2.5859   -0.5858 H   0  0  0  0  0  0  0  0  0  0  0  0
   -1.2261   -2.1939    0.4202 C   0  0  0  0  0  0  0  0  0  0  0  0
   -0.3181   -2.9519    0.7312 O   0  0  0  0  0  0  0  0  0  0  0  0
   -1.0281   -0.9259    0.0662 N   0  0  0  0  0  0  0  0  0  0  0  0
   -1.8301   -0.3519   -0.1548 H   0  0  0  0  0  0  0  0  0  0  0  0
    0.2709   -0.2409    0.0912 C   0  0  1  0  0  0  0  0  0  0  0  0
    0.7619   -0.4542    1.0410 H   0  0  0  0  0  0  0  0  0  0  0  0
    1.1650   -0.7755   -1.0351 C   0  0  0  0  0  0  0  0  0  0  0  0
    2.1591   -0.3350   -0.9424 H   0  0  0  0  0  0  0  0  0  0  0  0
    1.2509   -1.8602   -0.9489 H   0  0  0  0  0  0  0  0  0  0  0  0
    0.6347   -0.4393   -2.3036 O   0  0  0  0  0  0  0  0  0  0  0  0
    1.3019   -0.6344   -2.9705 H   0  0  0  0  0  0  0  0  0  0  0  0
    0.0811    1.2814   -0.0157 C   0  0  0  0  0  0  0  0  0  0  0  0
    1.0378    2.0034   -0.2987 O   0  0  0  0  0  0  0  0  0  0  0  0
   -1.1455    1.7704    0.1961 N   0  0  0  0  0  0  0  0  0  0  0  0
   -1.8456    1.1130    0.5133 H   0  0  0  0  0  0  0  0  0  0  0  0
   -1.5027    3.1853    0.1135 C   0  0  0  0  0  0  0  0  0  0  0  0
   -1.0653    3.6253   -0.7852 H   0  0  0  0  0  0  0  0  0  0  0  0
   -2.5866    3.2982    0.0775 H   0  0  0  0  0  0  0  0  0  0  0  0
   -1.1126    3.7131    0.9862 H   0  0  0  0  0  0  0  0  0  0  0  0
  5  6  2  0  0  0  0
  5  7  1  0  0  0  0
  2  3  1  0  0  0  0
  2  4  1  0  0  0  0
  2  5  1  0  0  0  0
  1  2  1  0  0  0  0
 16 17  2  0  0  0  0
 16 18  1  0  0  0  0
 14 15  1  0  0  0  0
 11 12  1  0  0  0  0
 11 13  1  0  0  0  0
 11 14  1  0  0  0  0
  9 10  1  0  0  0  0
  9 11  1  0  0  0  0
  9 16  1  0  0  0  0
  7  8  1  0  0  0  0
  7  9  1  0  0  0  0
 20 21  1  0  0  0  0
 20 22  1  0  0  0  0
 20 23  1  0  0  0  0
 18 19  1  0  0  0  0
 18 20  1  0  0  0  0
M  END
$$$$
default_name
  -OEChem-01062215323D

 23 22  0     1  0  0  0  0  0999 V2000
   -2.6721   -3.7279    0.7212 H   0  0  0  0  0  0  0  0  0  0  0  0
   -2.6561   -2.6819    0.4162 C   0  0  0  0  0  0  0  0  0  0  0  0
   -3.2401   -2.0889    1.1172 H   0  0  0  0  0  0  0  0  0  0  0  0
   -3.0671   -2.5859   -0.5858 H   0  0  0  0  0  0  0  0  0  0  0  0
   -1.2261   -2.1939    0.4202 C   0  0  0  0  0  0  0  0  0  0  0  0
   -0.3181   -2.9519    0.7312 O   0  0  0  0  0  0  0  0  0  0  0  0
   -1.0281   -0.9259    0.0662 N   0  0  0  0  0  0  0  0  0  0  0  0
   -1.8301   -0.3519   -0.1548 H   0  0  0  0  0  0  0  0  0  0  0  0
    0.2709   -0.2409    0.0912 C   0  0  1  0  0  0  0  0  0  0  0  0
    0.7619   -0.4542    1.0410 H   0  0  0  0  0  0  0  0  0  0  0  0
    1.1650   -0.7755   -1.0351 C   0  0  0  0  0  0  0  0  0  0  0  0
    2.1591   -0.3350   -0.9424 H   0  0  0  0  0  0  0  0  0  0  0  0
    1.2509   -1.8602   -0.9489 H   0  0  0  0  0  0  0  0  0  0  0  0
    0.6347   -0.4393   -2.3036 O   0  0  0  0  0  0  0  0  0  0  0  0
    1.3019   -0.6344   -2.9705 H   0  0  0  0  0  0  0  0  0  0  0  0
    0.0811    1.2814   -0.0157 C   0  0  0  0  0  0  0  0  0  0  0  0
    0.9431    1.9734   -0.5587 O   0  0  0  0  0  0  0  0  0  0  0  0
   -1.0433    1.8035    0.4860 N   0  0  0  0  0  0  0  0  0  0  0  0
   -1.6475    1.1715    0.9942 H   0  0  0  0  0  0  0  0  0  0  0  0
   -1.3900    3.2229    0.4492 C   0  0  0  0  0  0  0  0  0  0  0  0
   -1.1918    3.6263   -0.5461 H   0  0  0  0  0  0  0  0  0  0  0  0
   -2.4453    3.3586    0.6879 H   0  0  0  0  0  0  0  0  0  0  0  0
   -0.7819    3.7676    1.1744 H   0  0  0  0  0  0  0  0  0  0  0  0
  5  6  2  0  0  0  0
  5  7  1  0  0  0  0
  2  3  1  0  0  0  0
  2  4  1  0  0  0  0
  2  5  1  0  0  0  0
  1  2  1  0  0  0  0
 16 17  2  0  0  0  0
 16 18  1  0  0  0  0
 14 15  1  0  0  0  0
 11 12  1  0  0  0  0
 11 13  1  0  0  0  0
 11 14  1  0  0  0  0
  9 10  1  0  0  0  0
  9 11  1  0  0  0  0
  9 16  1  0  0  0  0
  7  8  1  0  0  0  0
  7  9  1  0  0  0  0
 20 21  1  0  0  0  0
 20 22  1  0  0  0  0
 20 23  1  0  0  0  0
 18 19  1  0  0  0  0
 18 20  1  0  0  0  0
M  END
$$$$
default_name
  -OEChem-01062215323D

 23 22  0     1  0  0  0  0  0999 V2000
   -2.6721   -3.7279    0.7212 H   0  0  0  0  0  0  0  0  0  0  0  0
   -2.6561   -2.6819    0.4162 C   0  0  0  0  0  0  0  0  0  0  0  0
   -3.2401   -2.0889    1.1172 H   0  0  0  0  0  0  0  0  0  0  0  0
   -3.0671   -2.5859   -0.5858 H   0  0  0  0  0  0  0  0  0  0  0  0
   -1.2261   -2.1939    0.4202 C   0  0  0  0  0  0  0  0  0  0  0  0
   -0.3181   -2.9519    0.7312 O   0  0  0  0  0  0  0  0  0  0  0  0
   -1.0281   -0.9259    0.0662 N   0  0  0  0  0  0  0  0  0  0  0  0
   -1.8301   -0.3519   -0.1548 H   0  0  0  0  0  0  0  0  0  0  0  0
    0.2709   -0.2409    0.0912 C   0  0  1  0  0  0  0  0  0  0  0  0
    0.7619   -0.4542    1.0410 H   0  0  0  0  0  0  0  0  0  0  0  0
    1.1650   -0.7755   -1.0351 C   0  0  0  0  0  0  0  0  0  0  0  0
    2.1591   -0.3350   -0.9424 H   0  0  0  0  0  0  0  0  0  0  0  0
    1.2509   -1.8602   -0.9489 H   0  0  0  0  0  0  0  0  0  0  0  0
    0.6347   -0.4393   -2.3036 O   0  0  0  0  0  0  0  0  0  0  0  0
    1.3019   -0.6344   -2.9705 H   0  0  0  0  0  0  0  0  0  0  0  0
    0.0811    1.2814   -0.0157 C   0  0  0  0  0  0  0  0  0  0  0  0
    0.7845    1.9378   -0.7846 O   0  0  0  0  0  0  0  0  0  0  0  0
   -0.8696    1.8429    0.7389 N   0  0  0  0  0  0  0  0  0  0  0  0
   -1.3320    1.2397    1.4062 H   0  0  0  0  0  0  0  0  0  0  0  0
   -1.1946    3.2679    0.7434 C   0  0  0  0  0  0  0  0  0  0  0  0
   -1.2527    3.6372   -0.2828 H   0  0  0  0  0  0  0  0  0  0  0  0
   -2.1513    3.4340    1.2394 H   0  0  0  0  0  0  0  0  0  0  0  0
   -0.4133    3.8202    1.2696 H   0  0  0  0  0  0  0  0  0  0  0  0
  5  6  2  0  0  0  0
  5  7  1  0  0  0  0
  2  3  1  0  0  0  0
  2  4  1  0  0  0  0
  2  5  1  0  0  0  0
  1  2  1  0  0  0  0
 16 17  2  0  0  0  0
 16 18  1  0  0  0  0
 14 15  1  0  0  0  0
 11 12  1  0  0  0  0
 11 13  1  0  0  0  0
 11 14  1  0  0  0  0
  9 10  1  0  0  0  0
  9 11  1  0  0  0  0
  9 16  1  0  0  0  0
  7  8  1  0  0  0  0
  7  9  1  0  0  0  0
 20 21  1  0  0  0  0
 20 22  1  0  0  0  0
 20 23  1  0  0  0  0
 18 19  1  0  0  0  0
 18 20  1  0  0  0  0
M  END
$$$$
default_name
  -OEChem-01062215323D

 23 22  0     1  0  0  0  0  0999 V2000
   -2.6721   -3.7279    0.7212 H   0  0  0  0  0  0  0  0  0  0  0  0
   -2.6561   -2.6819    0.4162 C   0  0  0  0  0  0  0  0  0  0  0  0
   -3.2401   -2.0889    1.1172 H   0  0  0  0  0  0  0  0  0  0  0  0
   -3.0671   -2.5859   -0.5858 H   0  0  0  0  0  0  0  0  0  0  0  0
   -1.2261   -2.1939    0.4202 C   0  0  0  0  0  0  0  0  0  0  0  0
   -0.3181   -2.9519    0.7312 O   0  0  0  0  0  0  0  0  0  0  0  0
   -1.0281   -0.9259    0.0662 N   0  0  0  0  0  0  0  0  0  0  0  0
   -1.8301   -0.3519   -0.1548 H   0  0  0  0  0  0  0  0  0  0  0  0
    0.2709   -0.2409    0.0912 C   0  0  1  0  0  0  0  0  0  0  0  0
    0.7619   -0.4542    1.0410 H   0  0  0  0  0  0  0  0  0  0  0  0
    1.1650   -0.7755   -1.0351 C   0  0  0  0  0  0  0  0  0  0  0  0
    2.1591   -0.3350   -0.9424 H   0  0  0  0  0  0  0  0  0  0  0  0
    1.2509   -1.8602   -0.9489 H   0  0  0  0  0  0  0  0  0  0  0  0
    0.6347   -0.4393   -2.3036 O   0  0  0  0  0  0  0  0  0  0  0  0
    1.3019   -0.6344   -2.9705 H   0  0  0  0  0  0  0  0  0  0  0  0
    0.0811    1.2814   -0.0157 C   0  0  0  0  0  0  0  0  0  0  0  0
    0.5727    1.8990   -0.9610 O   0  0  0  0  0  0  0  0  0  0  0  0
   -0.6364    1.8859    0.9373 N   0  0  0  0  0  0  0  0  0  0  0  0
   -0.9204    1.3132    1.7210 H   0  0  0  0  0  0  0  0  0  0  0  0
   -0.9296    3.3173    0.9760 C   0  0  0  0  0  0  0  0  0  0  0  0
   -1.2439    3.6572   -0.0131 H   0  0  0  0  0  0  0  0  0  0  0  0
   -1.7247    3.5191    1.6943 H   0  0  0  0  0  0  0  0  0  0  0  0
   -0.0319    3.8674    1.2655 H   0  0  0  0  0  0  0  0  0  0  0  0
  5  6  2  0  0  0  0
  5  7  1  0  0  0  0
  2  3  1  0  0  0  0
  2  4  1  0  0  0  0
  2  5  1  0  0  0  0
  1  2  1  0  0  0  0
 16 17  2  0  0  0  0
 16 18  1  0  0  0  0
 14 15  1  0  0  0  0
 11 12  1  0  0  0  0
 11 13  1  0  0  0  0
 11 14  1  0  0  0  0
  9 10  1  0  0  0  0
  9 11  1  0  0  0  0
  9 16  1  0  0  0  0
  7  8  1  0  0  0  0
  7  9  1  0  0  0  0
 20 21  1  0  0  0  0
 20 22  1  0  0  0  0
 20 23  1  0  0  0  0
 18 19  1  0  0  0  0
 18 20  1  0  0  0  0
M  END
$$$$
default_name
  -OEChem-01062215323D

 23 22  0     1  0  0  0  0  0999 V2000
   -2.6721   -3.7279    0.7212 H   0  0  0  0  0  0  0  0  0  0  0  0
   -2.6561   -2.6819    0.4162 C   0  0  0  0  0  0  0  0  0  0  0  0
   -3.2401   -2.0889    1.1172 H   0  0  0  0  0  0  0  0  0  0  0  0
   -3.0671   -2.5859   -0.5858 H   0  0  0  0  0  0  0  0  0  0  0  0
   -1.2261   -2.1939    0.4202 C   0  0  0  0  0  0  0  0  0  0  0  0
   -0.3181   -2.9519    0.7312 O   0  0  0  0  0  0  0  0  0  0  0  0
   -1.0281   -0.9259    0.0662 N   0  0  0  0  0  0  0  0  0  0  0  0
   -1.8301   -0.3519   -0.1548 H   0  0  0  0  0  0  0  0  0  0  0  0
    0.2709   -0.2409    0.0912 C   0  0  1  0  0  0  0  0  0  0  0  0
    0.7619   -0.4542    1.0410 H   0  0  0  0  0  0  0  0  0  0  0  0
    1.1650   -0.7755   -1.0351 C   0  0  0  0  0  0  0  0  0  0  0  0
    2.1591   -0.3350   -0.9424 H   0  0  0  0  0  0  0  0  0  0  0  0
    1.2509   -1.8602   -0.9489 H   0  0  0  0  0  0  0  0  0  0  0  0
    0.6347   -0.4393   -2.3036 O   0  0  0  0  0  0  0  0  0  0  0  0
    1.3019   -0.6344   -2.9705 H   0  0  0  0  0  0  0  0  0  0  0  0
    0.0811    1.2814   -0.0157 C   0  0  0  0  0  0  0  0  0  0  0  0
    0.3223    1.8597   -1.0760 O   0  0  0  0  0  0  0  0  0  0  0  0
   -0.3595    1.9296    1.0679 N   0  0  0  0  0  0  0  0  0  0  0  0
   -0.4409    1.3867    1.9173 H   0  0  0  0  0  0  0  0  0  0  0  0
   -0.6132    3.3676    1.1312 C   0  0  0  0  0  0  0  0  0  0  0  0
   -1.1659    3.6850    0.2444 H   0  0  0  0  0  0  0  0  0  0  0  0
   -1.1946    3.6082    2.0218 H   0  0  0  0  0  0  0  0  0  0  0  0
    0.3363    3.9061    1.1624 H   0  0  0  0  0  0  0  0  0  0  0  0
  5  6  2  0  0  0  0
  5  7  1  0  0  0  0
  2  3  1  0  0  0  0
  2  4  1  0  0  0  0
  2  5  1  0  0  0  0
  1  2  1  0  0  0  0
 16 17  2  0  0  0  0
 16 18  1  0  0  0  0
 14 15  1  0  0  0  0
 11 12  1  0  0  0  0
 11 13  1  0  0  0  0
 11 14  1  0  0  0  0
  9 10  1  0  0  0  0
  9 11  1  0  0  0  0
  9 16  1  0  0  0  0
  7  8  1  0  0  0  0
  7  9  1  0  0  0  0
 20 21  1  0  0  0  0
 20 22  1  0  0  0  0
 20 23  1  0  0  0  0
 18 19  1  0  0  0  0
 18 20  1  0  0  0  0
M  END
$$$$
default_name
  -OEChem-01062215323D

 23 22  0     1  0  0  0  0  0999 V2000
   -2.6721   -3.7279    0.7212 H   0  0  0  0  0  0  0  0  0  0  0  0
   -2.6561   -2.6819    0.4162 C   0  0  0  0  0  0  0  0  0  0  0  0
   -3.2401   -2.0889    1.1172 H   0  0  0  0  0  0  0  0  0  0  0  0
   -3.0671   -2.5859   -0.5858 H   0  0  0  0  0  0  0  0  0  0  0  0
   -1.2261   -2.1939    0.4202 C   0  0  0  0  0  0  0  0  0  0  0  0
   -0.3181   -2.9519    0.7312 O   0  0  0  0  0  0  0  0  0  0  0  0
   -1.0281   -0.9259    0.0662 N   0  0  0  0  0  0  0  0  0  0  0  0
   -1.8301   -0.3519   -0.1548 H   0  0  0  0  0  0  0  0  0  0  0  0
    0.2709   -0.2409    0.0912 C   0  0  1  0  0  0  0  0  0  0  0  0
    0.7619   -0.4542    1.0410 H   0  0  0  0  0  0  0  0  0  0  0  0
    1.1650   -0.7755   -1.0351 C   0  0  0  0  0  0  0  0  0  0  0  0
    2.1591   -0.3350   -0.9424 H   0  0  0  0  0  0  0  0  0  0  0  0
    1.2509   -1.8602   -0.9489 H   0  0  0  0  0  0  0  0  0  0  0  0
    0.6347   -0.4393   -2.3036 O   0  0  0  0  0  0  0  0  0  0  0  0
    1.3019   -0.6344   -2.9705 H   0  0  0  0  0  0  0  0  0  0  0  0
    0.0811    1.2814   -0.0157 C   0  0  0  0  0  0  0  0  0  0  0  0
    0.0502    1.8226   -1.1216 O   0  0  0  0  0  0  0  0  0  0  0  0
   -0.0578    1.9710    1.1217 N   0  0  0  0  0  0  0  0  0  0  0  0
    0.0739    1.4554    1.9818 H   0  0  0  0  0  0  0  0  0  0  0  0
   -0.2669    3.4155    1.1985 C   0  0  0  0  0  0  0  0  0  0  0  0
   -1.0241    3.7187    0.4723 H   0  0  0  0  0  0  0  0  0  0  0  0
   -0.5970    3.6952    2.1994 H   0  0  0  0  0  0  0  0  0  0  0  0
    0.6661    3.9335    0.9671 H   0  0  0  0  0  0  0  0  0  0  0  0
  5  6  2  0  0  0  0
  5  7  1  0  0  0  0
  2  3  1  0  0  0  0
  2  4  1  0  0  0  0
  2  5  1  0  0  0  0
  1  2  1  0  0  0  0
 16 17  2  0  0  0  0
 16 18  1  0  0  0  0
 14 15  1  0  0  0  0
 11 12  1  0  0  0  0
 11 13  1  0  0  0  0
 11 14  1  0  0  0  0
  9 10  1  0  0  0  0
  9 11  1  0  0  0  0
  9 16  1  0  0  0  0
  7  8  1  0  0  0  0
  7  9  1  0  0  0  0
 20 21  1  0  0  0  0
 20 22  1  0  0  0  0
 20 23  1  0  0  0  0
 18 19  1  0  0  0  0
 18 20  1  0  0  0  0
M  END
$$$$
default_name
  -OEChem-01062215323D

 23 22  0     1  0  0  0  0  0999 V2000
   -2.6721   -3.7279    0.7212 H   0  0  0  0  0  0  0  0  0  0  0  0
   -2.6561   -2.6819    0.4162 C   0  0  0  0  0  0  0  0  0  0  0  0
   -3.2401   -2.0889    1.1172 H   0  0  0  0  0  0  0  0  0  0  0  0
   -3.0671   -2.5859   -0.5858 H   0  0  0  0  0  0  0  0  0  0  0  0
   -1.2261   -2.1939    0.4202 C   0  0  0  0  0  0  0  0  0  0  0  0
   -0.3181   -2.9519    0.7312 O   0  0  0  0  0  0  0  0  0  0  0  0
   -1.0281   -0.9259    0.0662 N   0  0  0  0  0  0  0  0  0  0  0  0
   -1.8301   -0.3519   -0.1548 H   0  0  0  0  0  0  0  0  0  0  0  0
    0.2709   -0.2409    0.0912 C   0  0  1  0  0  0  0  0  0  0  0  0
    0.7619   -0.4542    1.0410 H   0  0  0  0  0  0  0  0  0  0  0  0
    1.1650   -0.7755   -1.0351 C   0  0  0  0  0  0  0  0  0  0  0  0
    2.1591   -0.3350   -0.9424 H   0  0  0  0  0  0  0  0  0  0  0  0
    1.2509   -1.8602   -0.9489 H   0  0  0  0  0  0  0  0  0  0  0  0
    0.6347   -0.4393   -2.3036 O   0  0  0  0  0  0  0  0  0  0  0  0
    1.3019   -0.6344   -2.9705 H   0  0  0  0  0  0  0  0  0  0  0  0
    0.0811    1.2814   -0.0157 C   0  0  0  0  0  0  0  0  0  0  0  0
   -0.2249    1.7901   -1.0947 O   0  0  0  0  0  0  0  0  0  0  0  0
    0.2481    2.0073    1.0951 N   0  0  0  0  0  0  0  0  0  0  0  0
    0.5889    1.5146    1.9099 H   0  0  0  0  0  0  0  0  0  0  0  0
    0.0857    3.4577    1.1732 C   0  0  0  0  0  0  0  0  0  0  0  0
   -0.8282    3.7559    0.6551 H   0  0  0  0  0  0  0  0  0  0  0  0
    0.0273    3.7741    2.2151 H   0  0  0  0  0  0  0  0  0  0  0  0
    0.9353    3.9478    0.6932 H   0  0  0  0  0  0  0  0  0  0  0  0
  5  6  2  0  0  0  0
  5  7  1  0  0  0  0
  2  3  1  0  0  0  0
  2  4  1  0  0  0  0
  2  5  1  0  0  0  0
  1  2  1  0  0  0  0
 16 17  2  0  0  0  0
 16 18  1  0  0  0  0
 14 15  1  0  0  0  0
 11 12  1  0  0  0  0
 11 13  1  0  0  0  0
 11 14  1  0  0  0  0
  9 10  1  0  0  0  0
  9 11  1  0  0  0  0
  9 16  1  0  0  0  0
  7  8  1  0  0  0  0
  7  9  1  0  0  0  0
 20 21  1  0  0  0  0
 20 22  1  0  0  0  0
 20 23  1  0  0  0  0
 18 19  1  0  0  0  0
 18 20  1  0  0  0  0
M  END
$$$$
default_name
  -OEChem-01062215323D

 23 22  0     1  0  0  0  0  0999 V2000
   -2.6721   -3.7279    0.7212 H   0  0  0  0  0  0  0  0  0  0  0  0
   -2.6561   -2.6819    0.4162 C   0  0  0  0  0  0  0  0  0  0  0  0
   -3.2401   -2.0889    1.1172 H   0  0  0  0  0  0  0  0  0  0  0  0
   -3.0671   -2.5859   -0.5858 H   0  0  0  0  0  0  0  0  0  0  0  0
   -1.2261   -2.1939    0.4202 C   0  0  0  0  0  0  0  0  0  0  0  0
   -0.3181   -2.9519    0.7312 O   0  0  0  0  0  0  0  0  0  0  0  0
   -1.0281   -0.9259    0.0662 N   0  0  0  0  0  0  0  0  0  0  0  0
   -1.8301   -0.3519   -0.1548 H   0  0  0  0  0  0  0  0  0  0  0  0
    0.2709   -0.2409    0.0912 C   0  0  1  0  0  0  0  0  0  0  0  0
    0.7619   -0.4542    1.0410 H   0  0  0  0  0  0  0  0  0  0  0  0
    1.1650   -0.7755   -1.0351 C   0  0  0  0  0  0  0  0  0  0  0  0
    2.1591   -0.3350   -0.9424 H   0  0  0  0  0  0  0  0  0  0  0  0
    1.2509   -1.8602   -0.9489 H   0  0  0  0  0  0  0  0  0  0  0  0
    0.6347   -0.4393   -2.3036 O   0  0  0  0  0  0  0  0  0  0  0  0
    1.3019   -0.6344   -2.9705 H   0  0  0  0  0  0  0  0  0  0  0  0
    0.0811    1.2814   -0.0157 C   0  0  0  0  0  0  0  0  0  0  0  0
   -0.4844    1.7646   -0.9972 O   0  0  0  0  0  0  0  0  0  0  0  0
    0.5375    2.0359    0.9898 N   0  0  0  0  0  0  0  0  0  0  0  0
    1.0690    1.5602    1.7067 H   0  0  0  0  0  0  0  0  0  0  0  0
    0.4206    3.4913    1.0571 C   0  0  0  0  0  0  0  0  0  0  0  0
   -0.5914    3.7942    0.7802 H   0  0  0  0  0  0  0  0  0  0  0  0
    0.6357    3.8396    2.0677 H   0  0  0  0  0  0  0  0  0  0  0  0
    1.1253    3.9481    0.3591 H   0  0  0  0  0  0  0  0  0  0  0  0
  5  6  2  0  0  0  0
  5  7  1  0  0  0  0
  2  3  1  0  0  0  0
  2  4  1  0  0  0  0
  2  5  1  0  0  0  0
  1  2  1  0  0  0  0
 16 17  2  0  0  0  0
 16 18  1  0  0  0  0
 14 15  1  0  0  0  0
 11 12  1  0  0  0  0
 11 13  1  0  0  0  0
 11 14  1  0  0  0  0
  9 10  1  0  0  0  0
  9 11  1  0  0  0  0
  9 16  1  0  0  0  0
  7  8  1  0  0  0  0
  7  9  1  0  0  0  0
 20 21  1  0  0  0  0
 20 22  1  0  0  0  0
 20 23  1  0  0  0  0
 18 19  1  0  0  0  0
 18 20  1  0  0  0  0
M  END
$$$$
default_name
  -OEChem-01062215323D

 23 22  0     1  0  0  0  0  0999 V2000
   -2.6721   -3.7279    0.7212 H   0  0  0  0  0  0  0  0  0  0  0  0
   -2.6561   -2.6819    0.4162 C   0  0  0  0  0  0  0  0  0  0  0  0
   -3.2401   -2.0889    1.1172 H   0  0  0  0  0  0  0  0  0  0  0  0
   -3.0671   -2.5859   -0.5858 H   0  0  0  0  0  0  0  0  0  0  0  0
   -1.2261   -2.1939    0.4202 C   0  0  0  0  0  0  0  0  0  0  0  0
   -0.3181   -2.9519    0.7312 O   0  0  0  0  0  0  0  0  0  0  0  0
   -1.0281   -0.9259    0.0662 N   0  0  0  0  0  0  0  0  0  0  0  0
   -1.8301   -0.3519   -0.1548 H   0  0  0  0  0  0  0  0  0  0  0  0
    0.2709   -0.2409    0.0912 C   0  0  1  0  0  0  0  0  0  0  0  0
    0.7619   -0.4542    1.0410 H   0  0  0  0  0  0  0  0  0  0  0  0
    1.1650   -0.7755   -1.0351 C   0  0  0  0  0  0  0  0  0  0  0  0
    2.1591   -0.3350   -0.9424 H   0  0  0  0  0  0  0  0  0  0  0  0
    1.2509   -1.8602   -0.9489 H   0  0  0  0  0  0  0  0  0  0  0  0
    0.6347   -0.4393   -2.3036 O   0  0  0  0  0  0  0  0  0  0  0  0
    1.3019   -0.6344   -2.9705 H   0  0  0  0  0  0  0  0  0  0  0  0
    0.0811    1.2814   -0.0157 C   0  0  0  0  0  0  0  0  0  0  0  0
   -0.7105    1.7478   -0.8358 O   0  0  0  0  0  0  0  0  0  0  0  0
    0.7905    2.0551    0.8130 N   0  0  0  0  0  0  0  0  0  0  0  0
    1.4815    1.5891    1.3859 H   0  0  0  0  0  0  0  0  0  0  0  0
    0.7150    3.5140    0.8581 C   0  0  0  0  0  0  0  0  0  0  0  0
   -0.3299    3.8310    0.8392 H   0  0  0  0  0  0  0  0  0  0  0  0
    1.1869    3.8872    1.7674 H   0  0  0  0  0  0  0  0  0  0  0  0
    1.2233    3.9342   -0.0123 H   0  0  0  0  0  0  0  0  0  0  0  0
  5  6  2  0  0  0  0
  5  7  1  0  0  0  0
  2  3  1  0  0  0  0
  2  4  1  0  0  0  0
  2  5  1  0  0  0  0
  1  2  1  0  0  0  0
 16 17  2  0  0  0  0
 16 18  1  0  0  0  0
 14 15  1  0  0  0  0
 11 12  1  0  0  0  0
 11 13  1  0  0  0  0
 11 14  1  0  0  0  0
  9 10  1  0  0  0  0
  9 11  1  0  0  0  0
  9 16  1  0  0  0  0
  7  8  1  0  0  0  0
  7  9  1  0  0  0  0
 20 21  1  0  0  0  0
 20 22  1  0  0  0  0
 20 23  1  0  0  0  0
 18 19  1  0  0  0  0
 18 20  1  0  0  0  0
M  END
$$$$
default_name
  -OEChem-01062215323D

 23 22  0     1  0  0  0  0  0999 V2000
   -2.6721   -3.7279    0.7212 H   0  0  0  0  0  0  0  0  0  0  0  0
   -2.6561   -2.6819    0.4162 C   0  0  0  0  0  0  0  0  0  0  0  0
   -3.2401   -2.0889    1.1172 H   0  0  0  0  0  0  0  0  0  0  0  0
   -3.0671   -2.5859   -0.5858 H   0  0  0  0  0  0  0  0  0  0  0  0
   -1.2261   -2.1939    0.4202 C   0  0  0  0  0  0  0  0  0  0  0  0
   -0.3181   -2.9519    0.7312 O   0  0  0  0  0  0  0  0  0  0  0  0
   -1.0281   -0.9259    0.0662 N   0  0  0  0  0  0  0  0  0  0  0  0
   -1.8301   -0.3519   -0.1548 H   0  0  0  0  0  0  0  0  0  0  0  0
    0.2709   -0.2409    0.0912 C   0  0  1  0  0  0  0  0  0  0  0  0
    0.7619   -0.4542    1.0410 H   0  0  0  0  0  0  0  0  0  0  0  0
    1.1650   -0.7755   -1.0351 C   0  0  0  0  0  0  0  0  0  0  0  0
    2.1591   -0.3350   -0.9424 H   0  0  0  0  0  0  0  0  0  0  0  0
    1.2509   -1.8602   -0.9489 H   0  0  0  0  0  0  0  0  0  0  0  0
    0.6347   -0.4393   -2.3036 O   0  0  0  0  0  0  0  0  0  0  0  0
    1.3019   -0.6344   -2.9705 H   0  0  0  0  0  0  0  0  0  0  0  0
    0.0811    1.2814   -0.0157 C   0  0  0  0  0  0  0  0  0  0  0  0
   -0.8879    1.7407   -0.6214 O   0  0  0  0  0  0  0  0  0  0  0  0
    0.9899    2.0634    0.5769 N   0  0  0  0  0  0  0  0  0  0  0  0
    1.7983    1.5993    0.9695 H   0  0  0  0  0  0  0  0  0  0  0  0
    0.9487    3.5243    0.5897 C   0  0  0  0  0  0  0  0  0  0  0  0
   -0.0616    3.8636    0.8280 H   0  0  0  0  0  0  0  0  0  0  0  0
    1.6432    3.9137    1.3346 H   0  0  0  0  0  0  0  0  0  0  0  0
    1.2225    3.9072   -0.3956 H   0  0  0  0  0  0  0  0  0  0  0  0
  5  6  2  0  0  0  0
  5  7  1  0  0  0  0
  2  3  1  0  0  0  0
  2  4  1  0  0  0  0
  2  5  1  0  0  0  0
  1  2  1  0  0  0  0
 16 17  2  0  0  0  0
 16 18  1  0  0  0  0
 14 15  1  0  0  0  0
 11 12  1  0  0  0  0
 11 13  1  0  0  0  0
 11 14  1  0  0  0  0
  9 10  1  0  0  0  0
  9 11  1  0  0  0  0
  9 16  1  0  0  0  0
  7  8  1  0  0  0  0
  7  9  1  0  0  0  0
 20 21  1  0  0  0  0
 20 22  1  0  0  0  0
 20 23  1  0  0  0  0
 18 19  1  0  0  0  0
 18 20  1  0  0  0  0
M  END
$$$$
default_name
  -OEChem-01062215323D

 23 22  0     1  0  0  0  0  0999 V2000
   -2.6721   -3.7279    0.7212 H   0  0  0  0  0  0  0  0  0  0  0  0
   -2.6561   -2.6819    0.4162 C   0  0  0  0  0  0  0  0  0  0  0  0
   -3.2401   -2.0889    1.1172 H   0  0  0  0  0  0  0  0  0  0  0  0
   -3.0671   -2.5859   -0.5858 H   0  0  0  0  0  0  0  0  0  0  0  0
   -1.2261   -2.1939    0.4202 C   0  0  0  0  0  0  0  0  0  0  0  0
   -0.3181   -2.9519    0.7312 O   0  0  0  0  0  0  0  0  0  0  0  0
   -1.0281   -0.9259    0.0662 N   0  0  0  0  0  0  0  0  0  0  0  0
   -1.8301   -0.3519   -0.1548 H   0  0  0  0  0  0  0  0  0  0  0  0
    0.2709   -0.2409    0.0912 C   0  0  1  0  0  0  0  0  0  0  0  0
    0.7619   -0.4542    1.0410 H   0  0  0  0  0  0  0  0  0  0  0  0
    1.1650   -0.7755   -1.0351 C   0  0  0  0  0  0  0  0  0  0  0  0
    2.1591   -0.3350   -0.9424 H   0  0  0  0  0  0  0  0  0  0  0  0
    1.2509   -1.8602   -0.9489 H   0  0  0  0  0  0  0  0  0  0  0  0
    0.6347   -0.4393   -2.3036 O   0  0  0  0  0  0  0  0  0  0  0  0
    1.3019   -0.6344   -2.9705 H   0  0  0  0  0  0  0  0  0  0  0  0
    0.0811    1.2814   -0.0157 C   0  0  0  0  0  0  0  0  0  0  0  0
   -1.0044    1.7440   -0.3686 O   0  0  0  0  0  0  0  0  0  0  0  0
    1.1222    2.0602    0.2974 N   0  0  0  0  0  0  0  0  0  0  0  0
    1.9977    1.5902    0.4857 H   0  0  0  0  0  0  0  0  0  0  0  0
    1.1059    3.5215    0.2702 C   0  0  0  0  0  0  0  0  0  0  0  0
    0.1952    3.8900    0.7473 H   0  0  0  0  0  0  0  0  0  0  0  0
    1.9735    3.9173    0.7988 H   0  0  0  0  0  0  0  0  0  0  0  0
    1.1230    3.8689   -0.7649 H   0  0  0  0  0  0  0  0  0  0  0  0
  5  6  2  0  0  0  0
  5  7  1  0  0  0  0
  2  3  1  0  0  0  0
  2  4  1  0  0  0  0
  2  5  1  0  0  0  0
  1  2  1  0  0  0  0
 16 17  2  0  0  0  0
 16 18  1  0  0  0  0
 14 15  1  0  0  0  0
 11 12  1  0  0  0  0
 11 13  1  0  0  0  0
 11 14  1  0  0  0  0
  9 10  1  0  0  0  0
  9 11  1  0  0  0  0
  9 16  1  0  0  0  0
  7  8  1  0  0  0  0
  7  9  1  0  0  0  0
 20 21  1  0  0  0  0
 20 22  1  0  0  0  0
 20 23  1  0  0  0  0
 18 19  1  0  0  0  0
 18 20  1  0  0  0  0
M  END
$$$$
default_name
  -OEChem-01062215323D

 23 22  0     1  0  0  0  0  0999 V2000
   -2.6721   -3.7279    0.7212 H   0  0  0  0  0  0  0  0  0  0  0  0
   -2.6561   -2.6819    0.4162 C   0  0  0  0  0  0  0  0  0  0  0  0
   -3.2401   -2.0889    1.1172 H   0  0  0  0  0  0  0  0  0  0  0  0
   -3.0671   -2.5859   -0.5858 H   0  0  0  0  0  0  0  0  0  0  0  0
   -1.2261   -2.1939    0.4202 C   0  0  0  0  0  0  0  0  0  0  0  0
   -0.3181   -2.9519    0.7312 O   0  0  0  0  0  0  0  0  0  0  0  0
   -1.0281   -0.9259    0.0662 N   0  0  0  0  0  0  0  0  0  0  0  0
   -1.8301   -0.3519   -0.1548 H   0  0  0  0  0  0  0  0  0  0  0  0
    0.2709   -0.2409    0.0912 C   0  0  1  0  0  0  0  0  0  0  0  0
    0.8713   -0.6566    0.9007 H   0  0  0  0  0  0  0  0  0  0  0  0
    1.0166   -0.4872   -1.2267 C   0  0  0  0  0  0  0  0  0  0  0  0
    2.0188   -0.0613   -1.1557 H   0  0  0  0  0  0  0  0  0  0  0  0
    1.1019   -1.5611   -1.4023 H   0  0  0  0  0  0  0  0  0  0  0  0
    0.3398    0.1202   -2.3112 O   0  0  0  0  0  0  0  0  0  0  0  0
    0.9193    0.0951   -3.0803 H   0  0  0  0  0  0  0  0  0  0  0  0
    0.0842    1.2617    0.3596 C   0  0  0  0  0  0  0  0  0  0  0  0
   -1.0455    1.7220    0.5285 O   0  0  0  0  0  0  0  0  0  0  0  0
    1.1819    2.0240    0.4119 N   0  0  0  0  0  0  0  0  0  0  0  0
    2.0554    1.5757    0.1693 H   0  0  0  0  0  0  0  0  0  0  0  0
    1.1846    3.4613    0.6771 C   0  0  0  0  0  0  0  0  0  0  0  0
    0.5241    3.6835    1.5180 H   0  0  0  0  0  0  0  0  0  0  0  0
    2.1941    3.7980    0.9149 H   0  0  0  0  0  0  0  0  0  0  0  0
    0.8222    3.9969   -0.2028 H   0  0  0  0  0  0  0  0  0  0  0  0
  5  6  2  0  0  0  0
  5  7  1  0  0  0  0
  2  3  1  0  0  0  0
  2  4  1  0  0  0  0
  2  5  1  0  0  0  0
  1  2  1  0  0  0  0
 16 17  2  0  0  0  0
 16 18  1  0  0  0  0
 14 15  1  0  0  0  0
 11 12  1  0  0  0  0
 11 13  1  0  0  0  0
 11 14  1  0  0  0  0
  9 10  1  0  0  0  0
  9 11  1  0  0  0  0
  9 16  1  0  0  0  0
  7  8  1  0  0  0  0
  7  9  1  0  0  0  0
 20 21  1  0  0  0  0
 20 22  1  0  0  0  0
 20 23  1  0  0  0  0
 18 19  1  0  0  0  0
 18 20  1  0  0  0  0
M  END
$$$$
default_name
  -OEChem-01062215323D

 23 22  0     1  0  0  0  0  0999 V2000
   -2.6721   -3.7279    0.7212 H   0  0  0  0  0  0  0  0  0  0  0  0
   -2.6561   -2.6819    0.4162 C   0  0  0  0  0  0  0  0  0  0  0  0
   -3.2401   -2.0889    1.1172 H   0  0  0  0  0  0  0  0  0  0  0  0
   -3.0671   -2.5859   -0.5858 H   0  0  0  0  0  0  0  0  0  0  0  0
   -1.2261   -2.1939    0.4202 C   0  0  0  0  0  0  0  0  0  0  0  0
   -0.3181   -2.9519    0.7312 O   0  0  0  0  0  0  0  0  0  0  0  0
   -1.0281   -0.9259    0.0662 N   0  0  0  0  0  0  0  0  0  0  0  0
   -1.8301   -0.3519   -0.1548 H   0  0  0  0  0  0  0  0  0  0  0  0
    0.2709   -0.2409    0.0912 C   0  0  1  0  0  0  0  0  0  0  0  0
    0.8713   -0.6566    0.9007 H   0  0  0  0  0  0  0  0  0  0  0  0
    1.0166   -0.4872   -1.2267 C   0  0  0  0  0  0  0  0  0  0  0  0
    2.0188   -0.0613   -1.1557 H   0  0  0  0  0  0  0  0  0  0  0  0
    1.1019   -1.5611   -1.4023 H   0  0  0  0  0  0  0  0  0  0  0  0
    0.3398    0.1202   -2.3112 O   0  0  0  0  0  0  0  0  0  0  0  0
    0.9193    0.0951   -3.0803 H   0  0  0  0  0  0  0  0  0  0  0  0
    0.0842    1.2617    0.3596 C   0  0  0  0  0  0  0  0  0  0  0  0
   -0.9876    1.6811    0.7977 O   0  0  0  0  0  0  0  0  0  0  0  0
    1.1207    2.0699    0.1123 N   0  0  0  0  0  0  0  0  0  0  0  0
    1.9258    1.6492   -0.3324 H   0  0  0  0  0  0  0  0  0  0  0  0
    1.1195    3.5150    0.3312 C   0  0  0  0  0  0  0  0  0  0  0  0
    0.6823    3.7410    1.3061 H   0  0  0  0  0  0  0  0  0  0  0  0
    2.1385    3.9016    0.2965 H   0  0  0  0  0  0  0  0  0  0  0  0
    0.5210    4.0021   -0.4414 H   0  0  0  0  0  0  0  0  0  0  0  0
  5  6  2  0  0  0  0
  5  7  1  0  0  0  0
  2  3  1  0  0  0  0
  2  4  1  0  0  0  0
  2  5  1  0  0  0  0
  1  2  1  0  0  0  0
 16 17  2  0  0  0  0
 16 18  1  0  0  0  0
 14 15  1  0  0  0  0
 11 12  1  0  0  0  0
 11 13  1  0  0  0  0
 11 14  1  0  0  0  0
  9 10  1  0  0  0  0
  9 11  1  0  0  0  0
  9 16  1  0  0  0  0
  7  8  1  0  0  0  0
  7  9  1  0  0  0  0
 20 21  1  0  0  0  0
 20 22  1  0  0  0  0
 20 23  1  0  0  0  0
 18 19  1  0  0  0  0
 18 20  1  0  0  0  0
M  END
$$$$
default_name
  -OEChem-01062215323D

 23 22  0     1  0  0  0  0  0999 V2000
   -2.6721   -3.7279    0.7212 H   0  0  0  0  0  0  0  0  0  0  0  0
   -2.6561   -2.6819    0.4162 C   0  0  0  0  0  0  0  0  0  0  0  0
   -3.2401   -2.0889    1.1172 H   0  0  0  0  0  0  0  0  0  0  0  0
   -3.0671   -2.5859   -0.5858 H   0  0  0  0  0  0  0  0  0  0  0  0
   -1.2261   -2.1939    0.4202 C   0  0  0  0  0  0  0  0  0  0  0  0
   -0.3181   -2.9519    0.7312 O   0  0  0  0  0  0  0  0  0  0  0  0
   -1.0281   -0.9259    0.0662 N   0  0  0  0  0  0  0  0  0  0  0  0
   -1.8301   -0.3519   -0.1548 H   0  0  0  0  0  0  0  0  0  0  0  0
    0.2709   -0.2409    0.0912 C   0  0  1  0  0  0  0  0  0  0  0  0
    0.8713   -0.6566    0.9007 H   0  0  0  0  0  0  0  0  0  0  0  0
    1.0166   -0.4872   -1.2267 C   0  0  0  0  0  0  0  0  0  0  0  0
    2.0188   -0.0613   -1.1557 H   0  0  0  0  0  0  0  0  0  0  0  0
    1.1019   -1.5611   -1.4023 H   0  0  0  0  0  0  0  0  0  0  0  0
    0.3398    0.1202   -2.3112 O   0  0  0  0  0  0  0  0  0  0  0  0
    0.9193    0.0951   -3.0803 H   0  0  0  0  0  0  0  0  0  0  0  0
    0.0842    1.2617    0.3596 C   0  0  0  0  0  0  0  0  0  0  0  0
   -0.8618    1.6527    1.0444 O   0  0  0  0  0  0  0  0  0  0  0  0
    0.9837    2.1021   -0.1631 N   0  0  0  0  0  0  0  0  0  0  0  0
    1.6703    1.6986   -0.7865 H   0  0  0  0  0  0  0  0  0  0  0  0
    0.9667    3.5531    0.0119 C   0  0  0  0  0  0  0  0  0  0  0  0
    0.7789    3.7970    1.0597 H   0  0  0  0  0  0  0  0  0  0  0  0
    1.9236    3.9797   -0.2900 H   0  0  0  0  0  0  0  0  0  0  0  0
    0.1694    3.9860   -0.5958 H   0  0  0  0  0  0  0  0  0  0  0  0
  5  6  2  0  0  0  0
  5  7  1  0  0  0  0
  2  3  1  0  0  0  0
  2  4  1  0  0  0  0
  2  5  1  0  0  0  0
  1  2  1  0  0  0  0
 16 17  2  0  0  0  0
 16 18  1  0  0  0  0
 14 15  1  0  0  0  0
 11 12  1  0  0  0  0
 11 13  1  0  0  0  0
 11 14  1  0  0  0  0
  9 10  1  0  0  0  0
  9 11  1  0  0  0  0
  9 16  1  0  0  0  0
  7  8  1  0  0  0  0
  7  9  1  0  0  0  0
 20 21  1  0  0  0  0
 20 22  1  0  0  0  0
 20 23  1  0  0  0  0
 18 19  1  0  0  0  0
 18 20  1  0  0  0  0
M  END
$$$$
default_name
  -OEChem-01062215323D

 23 22  0     1  0  0  0  0  0999 V2000
   -2.6721   -3.7279    0.7212 H   0  0  0  0  0  0  0  0  0  0  0  0
   -2.6561   -2.6819    0.4162 C   0  0  0  0  0  0  0  0  0  0  0  0
   -3.2401   -2.0889    1.1172 H   0  0  0  0  0  0  0  0  0  0  0  0
   -3.0671   -2.5859   -0.5858 H   0  0  0  0  0  0  0  0  0  0  0  0
   -1.2261   -2.1939    0.4202 C   0  0  0  0  0  0  0  0  0  0  0  0
   -0.3181   -2.9519    0.7312 O   0  0  0  0  0  0  0  0  0  0  0  0
   -1.0281   -0.9259    0.0662 N   0  0  0  0  0  0  0  0  0  0  0  0
   -1.8301   -0.3519   -0.1548 H   0  0  0  0  0  0  0  0  0  0  0  0
    0.2709   -0.2409    0.0912 C   0  0  1  0  0  0  0  0  0  0  0  0
    0.8713   -0.6566    0.9007 H   0  0  0  0  0  0  0  0  0  0  0  0
    1.0166   -0.4872   -1.2267 C   0  0  0  0  0  0  0  0  0  0  0  0
    2.0188   -0.0613   -1.1557 H   0  0  0  0  0  0  0  0  0  0  0  0
    1.1019   -1.5611   -1.4023 H   0  0  0  0  0  0  0  0  0  0  0  0
    0.3398    0.1202   -2.3112 O   0  0  0  0  0  0  0  0  0  0  0  0
    0.9193    0.0951   -3.0803 H   0  0  0  0  0  0  0  0  0  0  0  0
    0.0842    1.2617    0.3596 C   0  0  0  0  0  0  0  0  0  0  0  0
   -0.6766    1.6387    1.2517 O   0  0  0  0  0  0  0  0  0  0  0  0
    0.7804    2.1184   -0.3955 N   0  0  0  0  0  0  0  0  0  0  0  0
    1.3066    1.7206   -1.1621 H   0  0  0  0  0  0  0  0  0  0  0  0
    0.7366    3.5729   -0.2590 C   0  0  0  0  0  0  0  0  0  0  0  0
    0.8073    3.8477    0.7955 H   0  0  0  0  0  0  0  0  0  0  0  0
    1.5643    4.0270   -0.8046 H   0  0  0  0  0  0  0  0  0  0  0  0
   -0.2085    3.9498   -0.6556 H   0  0  0  0  0  0  0  0  0  0  0  0
  5  6  2  0  0  0  0
  5  7  1  0  0  0  0
  2  3  1  0  0  0  0
  2  4  1  0  0  0  0
  2  5  1  0  0  0  0
  1  2  1  0  0  0  0
 16 17  2  0  0  0  0
 16 18  1  0  0  0  0
 14 15  1  0  0  0  0
 11 12  1  0  0  0  0
 11 13  1  0  0  0  0
 11 14  1  0  0  0  0
  9 10  1  0  0  0  0
  9 11  1  0  0  0  0
  9 16  1  0  0  0  0
  7  8  1  0  0  0  0
  7  9  1  0  0  0  0
 20 21  1  0  0  0  0
 20 22  1  0  0  0  0
 20 23  1  0  0  0  0
 18 19  1  0  0  0  0
 18 20  1  0  0  0  0
M  END
$$$$
default_name
  -OEChem-01062215323D

 23 22  0     1  0  0  0  0  0999 V2000
   -2.6721   -3.7279    0.7212 H   0  0  0  0  0  0  0  0  0  0  0  0
   -2.6561   -2.6819    0.4162 C   0  0  0  0  0  0  0  0  0  0  0  0
   -3.2401   -2.0889    1.1172 H   0  0  0  0  0  0  0  0  0  0  0  0
   -3.0671   -2.5859   -0.5858 H   0  0  0  0  0  0  0  0  0  0  0  0
   -1.2261   -2.1939    0.4202 C   0  0  0  0  0  0  0  0  0  0  0  0
   -0.3181   -2.9519    0.7312 O   0  0  0  0  0  0  0  0  0  0  0  0
   -1.0281   -0.9259    0.0662 N   0  0  0  0  0  0  0  0  0  0  0  0
   -1.8301   -0.3519   -0.1548 H   0  0  0  0  0  0  0  0  0  0  0  0
    0.2709   -0.2409    0.0912 C   0  0  1  0  0  0  0  0  0  0  0  0
    0.8713   -0.6566    0.9007 H   0  0  0  0  0  0  0  0  0  0  0  0
    1.0166   -0.4872   -1.2267 C   0  0  0  0  0  0  0  0  0  0  0  0
    2.0188   -0.0613   -1.1557 H   0  0  0  0  0  0  0  0  0  0  0  0
    1.1019   -1.5611   -1.4023 H   0  0  0  0  0  0  0  0  0  0  0  0
    0.3398    0.1202   -2.3112 O   0  0  0  0  0  0  0  0  0  0  0  0
    0.9193    0.0951   -3.0803 H   0  0  0  0  0  0  0  0  0  0  0  0
    0.0842    1.2617    0.3596 C   0  0  0  0  0  0  0  0  0  0  0  0
   -0.4447    1.6400    1.4055 O   0  0  0  0  0  0  0  0  0  0  0  0
    0.5244    2.1176   -0.5690 N   0  0  0  0  0  0  0  0  0  0  0  0
    0.8592    1.7135   -1.4336 H   0  0  0  0  0  0  0  0  0  0  0  0
    0.4449    3.5732   -0.4632 C   0  0  0  0  0  0  0  0  0  0  0  0
    0.7657    3.8897    0.5316 H   0  0  0  0  0  0  0  0  0  0  0  0
    1.0849    4.0403   -1.2123 H   0  0  0  0  0  0  0  0  0  0  0  0
   -0.5870    3.8958   -0.6166 H   0  0  0  0  0  0  0  0  0  0  0  0
  5  6  2  0  0  0  0
  5  7  1  0  0  0  0
  2  3  1  0  0  0  0
  2  4  1  0  0  0  0
  2  5  1  0  0  0  0
  1  2  1  0  0  0  0
 16 17  2  0  0  0  0
 16 18  1  0  0  0  0
 14 15  1  0  0  0  0
 11 12  1  0  0  0  0
 11 13  1  0  0  0  0
 11 14  1  0  0  0  0
  9 10  1  0  0  0  0
  9 11  1  0  0  0  0
  9 16  1  0  0  0  0
  7  8  1  0  0  0  0
  7  9  1  0  0  0  0
 20 21  1  0  0  0  0
 20 22  1  0  0  0  0
 20 23  1  0  0  0  0
 18 19  1  0  0  0  0
 18 20  1  0  0  0  0
M  END
$$$$
default_name
  -OEChem-01062215323D

 23 22  0     1  0  0  0  0  0999 V2000
   -2.6721   -3.7279    0.7212 H   0  0  0  0  0  0  0  0  0  0  0  0
   -2.6561   -2.6819    0.4162 C   0  0  0  0  0  0  0  0  0  0  0  0
   -3.2401   -2.0889    1.1172 H   0  0  0  0  0  0  0  0  0  0  0  0
   -3.0671   -2.5859   -0.5858 H   0  0  0  0  0  0  0  0  0  0  0  0
   -1.2261   -2.1939    0.4202 C   0  0  0  0  0  0  0  0  0  0  0  0
   -0.3181   -2.9519    0.7312 O   0  0  0  0  0  0  0  0  0  0  0  0
   -1.0281   -0.9259    0.0662 N   0  0  0  0  0  0  0  0  0  0  0  0
   -1.8301   -0.3519   -0.1548 H   0  0  0  0  0  0  0  0  0  0  0  0
    0.2709   -0.2409    0.0912 C   0  0  1  0  0  0  0  0  0  0  0  0
    0.8713   -0.6566    0.9007 H   0  0  0  0  0  0  0  0  0  0  0  0
    1.0166   -0.4872   -1.2267 C   0  0  0  0  0  0  0  0  0  0  0  0
    2.0188   -0.0613   -1.1557 H   0  0  0  0  0  0  0  0  0  0  0  0
    1.1019   -1.5611   -1.4023 H   0  0  0  0  0  0  0  0  0  0  0  0
    0.3398    0.1202   -2.3112 O   0  0  0  0  0  0  0  0  0  0  0  0
    0.9193    0.0951   -3.0803 H   0  0  0  0  0  0  0  0  0  0  0  0
    0.0842    1.2617    0.3596 C   0  0  0  0  0  0  0  0  0  0  0  0
   -0.1818    1.6566    1.4954 O   0  0  0  0  0  0  0  0  0  0  0  0
    0.2333    2.0998   -0.6719 N   0  0  0  0  0  0  0  0  0  0  0  0
    0.3587    1.6779   -1.5825 H   0  0  0  0  0  0  0  0  0  0  0  0
    0.1115    3.5538   -0.5867 C   0  0  0  0  0  0  0  0  0  0  0  0
    0.6568    3.9201    0.2858 H   0  0  0  0  0  0  0  0  0  0  0  0
    0.5181    4.0187   -1.4853 H   0  0  0  0  0  0  0  0  0  0  0  0
   -0.9403    3.8278   -0.4816 H   0  0  0  0  0  0  0  0  0  0  0  0
  5  6  2  0  0  0  0
  5  7  1  0  0  0  0
  2  3  1  0  0  0  0
  2  4  1  0  0  0  0
  2  5  1  0  0  0  0
  1  2  1  0  0  0  0
 16 17  2  0  0  0  0
 16 18  1  0  0  0  0
 14 15  1  0  0  0  0
 11 12  1  0  0  0  0
 11 13  1  0  0  0  0
 11 14  1  0  0  0  0
  9 10  1  0  0  0  0
  9 11  1  0  0  0  0
  9 16  1  0  0  0  0
  7  8  1  0  0  0  0
  7  9  1  0  0  0  0
 20 21  1  0  0  0  0
 20 22  1  0  0  0  0
 20 23  1  0  0  0  0
 18 19  1  0  0  0  0
 18 20  1  0  0  0  0
M  END
$$$$
default_name
  -OEChem-01062215323D

 23 22  0     1  0  0  0  0  0999 V2000
   -2.6721   -3.7279    0.7212 H   0  0  0  0  0  0  0  0  0  0  0  0
   -2.6561   -2.6819    0.4162 C   0  0  0  0  0  0  0  0  0  0  0  0
   -3.2401   -2.0889    1.1172 H   0  0  0  0  0  0  0  0  0  0  0  0
   -3.0671   -2.5859   -0.5858 H   0  0  0  0  0  0  0  0  0  0  0  0
   -1.2261   -2.1939    0.4202 C   0  0  0  0  0  0  0  0  0  0  0  0
   -0.3181   -2.9519    0.7312 O   0  0  0  0  0  0  0  0  0  0  0  0
   -1.0281   -0.9259    0.0662 N   0  0  0  0  0  0  0  0  0  0  0  0
   -1.8301   -0.3519   -0.1548 H   0  0  0  0  0  0  0  0  0  0  0  0
    0.2709   -0.2409    0.0912 C   0  0  1  0  0  0  0  0  0  0  0  0
    0.8713   -0.6566    0.9007 H   0  0  0  0  0  0  0  0  0  0  0  0
    1.0166   -0.4872   -1.2267 C   0  0  0  0  0  0  0  0  0  0  0  0
    2.0188   -0.0613   -1.1557 H   0  0  0  0  0  0  0  0  0  0  0  0
    1.1019   -1.5611   -1.4023 H   0  0  0  0  0  0  0  0  0  0  0  0
    0.3398    0.1202   -2.3112 O   0  0  0  0  0  0  0  0  0  0  0  0
    0.9193    0.0951   -3.0803 H   0  0  0  0  0  0  0  0  0  0  0  0
    0.0842    1.2617    0.3596 C   0  0  0  0  0  0  0  0  0  0  0  0
    0.0941    1.6873    1.5153 O   0  0  0  0  0  0  0  0  0  0  0  0
   -0.0731    2.0663   -0.6971 N   0  0  0  0  0  0  0  0  0  0  0  0
   -0.1607    1.6163   -1.5986 H   0  0  0  0  0  0  0  0  0  0  0  0
   -0.2409    3.5162   -0.6210 C   0  0  0  0  0  0  0  0  0  0  0  0
    0.4881    3.9368    0.0750 H   0  0  0  0  0  0  0  0  0  0  0  0
   -0.0974    3.9636   -1.6049 H   0  0  0  0  0  0  0  0  0  0  0  0
   -1.2443    3.7504   -0.2596 H   0  0  0  0  0  0  0  0  0  0  0  0
  5  6  2  0  0  0  0
  5  7  1  0  0  0  0
  2  3  1  0  0  0  0
  2  4  1  0  0  0  0
  2  5  1  0  0  0  0
  1  2  1  0  0  0  0
 16 17  2  0  0  0  0
 16 18  1  0  0  0  0
 14 15  1  0  0  0  0
 11 12  1  0  0  0  0
 11 13  1  0  0  0  0
 11 14  1  0  0  0  0
  9 10  1  0  0  0  0
  9 11  1  0  0  0  0
  9 16  1  0  0  0  0
  7  8  1  0  0  0  0
  7  9  1  0  0  0  0
 20 21  1  0  0  0  0
 20 22  1  0  0  0  0
 20 23  1  0  0  0  0
 18 19  1  0  0  0  0
 18 20  1  0  0  0  0
M  END
$$$$
default_name
  -OEChem-01062215323D

 23 22  0     1  0  0  0  0  0999 V2000
   -2.6721   -3.7279    0.7212 H   0  0  0  0  0  0  0  0  0  0  0  0
   -2.6561   -2.6819    0.4162 C   0  0  0  0  0  0  0  0  0  0  0  0
   -3.2401   -2.0889    1.1172 H   0  0  0  0  0  0  0  0  0  0  0  0
   -3.0671   -2.5859   -0.5858 H   0  0  0  0  0  0  0  0  0  0  0  0
   -1.2261   -2.1939    0.4202 C   0  0  0  0  0  0  0  0  0  0  0  0
   -0.3181   -2.9519    0.7312 O   0  0  0  0  0  0  0  0  0  0  0  0
   -1.0281   -0.9259    0.0662 N   0  0  0  0  0  0  0  0  0  0  0  0
   -1.8301   -0.3519   -0.1548 H   0  0  0  0  0  0  0  0  0  0  0  0
    0.2709   -0.2409    0.0912 C   0  0  1  0  0  0  0  0  0  0  0  0
    0.8713   -0.6566    0.9007 H   0  0  0  0  0  0  0  0  0  0  0  0
    1.0166   -0.4872   -1.2267 C   0  0  0  0  0  0  0  0  0  0  0  0
    2.0188   -0.0613   -1.1557 H   0  0  0  0  0  0  0  0  0  0  0  0
    1.1019   -1.5611   -1.4023 H   0  0  0  0  0  0  0  0  0  0  0  0
    0.3398    0.1202   -2.3112 O   0  0  0  0  0  0  0  0  0  0  0  0
    0.9193    0.0951   -3.0803 H   0  0  0  0  0  0  0  0  0  0  0  0
    0.0842    1.2617    0.3596 C   0  0  0  0  0  0  0  0  0  0  0  0
    0.3643    1.7301    1.4637 O   0  0  0  0  0  0  0  0  0  0  0  0
   -0.3739    2.0192   -0.6428 N   0  0  0  0  0  0  0  0  0  0  0  0
   -0.6638    1.5328   -1.4808 H   0  0  0  0  0  0  0  0  0  0  0  0
   -0.5882    3.4628   -0.5639 C   0  0  0  0  0  0  0  0  0  0  0  0
    0.2711    3.9387   -0.0865 H   0  0  0  0  0  0  0  0  0  0  0  0
   -0.7197    3.8788   -1.5631 H   0  0  0  0  0  0  0  0  0  0  0  0
   -1.4784    3.6689    0.0341 H   0  0  0  0  0  0  0  0  0  0  0  0
  5  6  2  0  0  0  0
  5  7  1  0  0  0  0
  2  3  1  0  0  0  0
  2  4  1  0  0  0  0
  2  5  1  0  0  0  0
  1  2  1  0  0  0  0
 16 17  2  0  0  0  0
 16 18  1  0  0  0  0
 14 15  1  0  0  0  0
 11 12  1  0  0  0  0
 11 13  1  0  0  0  0
 11 14  1  0  0  0  0
  9 10  1  0  0  0  0
  9 11  1  0  0  0  0
  9 16  1  0  0  0  0
  7  8  1  0  0  0  0
  7  9  1  0  0  0  0
 20 21  1  0  0  0  0
 20 22  1  0  0  0  0
 20 23  1  0  0  0  0
 18 19  1  0  0  0  0
 18 20  1  0  0  0  0
M  END
$$$$
default_name
  -OEChem-01062215323D

 23 22  0     1  0  0  0  0  0999 V2000
   -2.6721   -3.7279    0.7212 H   0  0  0  0  0  0  0  0  0  0  0  0
   -2.6561   -2.6819    0.4162 C   0  0  0  0  0  0  0  0  0  0  0  0
   -3.2401   -2.0889    1.1172 H   0  0  0  0  0  0  0  0  0  0  0  0
   -3.0671   -2.5859   -0.5858 H   0  0  0  0  0  0  0  0  0  0  0  0
   -1.2261   -2.1939    0.4202 C   0  0  0  0  0  0  0  0  0  0  0  0
   -0.3181   -2.9519    0.7312 O   0  0  0  0  0  0  0  0  0  0  0  0
   -1.0281   -0.9259    0.0662 N   0  0  0  0  0  0  0  0  0  0  0  0
   -1.8301   -0.3519   -0.1548 H   0  0  0  0  0  0  0  0  0  0  0  0
    0.2709   -0.2409    0.0912 C   0  0  1  0  0  0  0  0  0  0  0  0
    0.8713   -0.6566    0.9007 H   0  0  0  0  0  0  0  0  0  0  0  0
    1.0166   -0.4872   -1.2267 C   0  0  0  0  0  0  0  0  0  0  0  0
    2.0188   -0.0613   -1.1557 H   0  0  0  0  0  0  0  0  0  0  0  0
    1.1019   -1.5611   -1.4023 H   0  0  0  0  0  0  0  0  0  0  0  0
    0.3398    0.1202   -2.3112 O   0  0  0  0  0  0  0  0  0  0  0  0
    0.9193    0.0951   -3.0803 H   0  0  0  0  0  0  0  0  0  0  0  0
    0.0842    1.2617    0.3596 C   0  0  0  0  0  0  0  0  0  0  0  0
    0.6103    1.7820    1.3442 O   0  0  0  0  0  0  0  0  0  0  0  0
   -0.6486    1.9619   -0.5129 N   0  0  0  0  0  0  0  0  0  0  0  0
   -1.1161    1.4331   -1.2372 H   0  0  0  0  0  0  0  0  0  0  0  0
   -0.9069    3.3974   -0.4191 C   0  0  0  0  0  0  0  0  0  0  0  0
    0.0205    3.9257   -0.1877 H   0  0  0  0  0  0  0  0  0  0  0  0
   -1.3064    3.7702   -1.3627 H   0  0  0  0  0  0  0  0  0  0  0  0
   -1.6265    3.5887    0.3795 H   0  0  0  0  0  0  0  0  0  0  0  0
  5  6  2  0  0  0  0
  5  7  1  0  0  0  0
  2  3  1  0  0  0  0
  2  4  1  0  0  0  0
  2  5  1  0  0  0  0
  1  2  1  0  0  0  0
 16 17  2  0  0  0  0
 16 18  1  0  0  0  0
 14 15  1  0  0  0  0
 11 12  1  0  0  0  0
 11 13  1  0  0  0  0
 11 14  1  0  0  0  0
  9 10  1  0  0  0  0
  9 11  1  0  0  0  0
  9 16  1  0  0  0  0
  7  8  1  0  0  0  0
  7  9  1  0  0  0  0
 20 21  1  0  0  0  0
 20 22  1  0  0  0  0
 20 23  1  0  0  0  0
 18 19  1  0  0  0  0
 18 20  1  0  0  0  0
M  END
$$$$
default_name
  -OEChem-01062215323D

 23 22  0     1  0  0  0  0  0999 V2000
   -2.6721   -3.7279    0.7212 H   0  0  0  0  0  0  0  0  0  0  0  0
   -2.6561   -2.6819    0.4162 C   0  0  0  0  0  0  0  0  0  0  0  0
   -3.2401   -2.0889    1.1172 H   0  0  0  0  0  0  0  0  0  0  0  0
   -3.0671   -2.5859   -0.5858 H   0  0  0  0  0  0  0  0  0  0  0  0
   -1.2261   -2.1939    0.4202 C   0  0  0  0  0  0  0  0  0  0  0  0
   -0.3181   -2.9519    0.7312 O   0  0  0  0  0  0  0  0  0  0  0  0
   -1.0281   -0.9259    0.0662 N   0  0  0  0  0  0  0  0  0  0  0  0
   -1.8301   -0.3519   -0.1548 H   0  0  0  0  0  0  0  0  0  0  0  0
    0.2709   -0.2409    0.0912 C   0  0  1  0  0  0  0  0  0  0  0  0
    0.8713   -0.6566    0.9007 H   0  0  0  0  0  0  0  0  0  0  0  0
    1.0166   -0.4872   -1.2267 C   0  0  0  0  0  0  0  0  0  0  0  0
    2.0188   -0.0613   -1.1557 H   0  0  0  0  0  0  0  0  0  0  0  0
    1.1019   -1.5611   -1.4023 H   0  0  0  0  0  0  0  0  0  0  0  0
    0.3398    0.1202   -2.3112 O   0  0  0  0  0  0  0  0  0  0  0  0
    0.9193    0.0951   -3.0803 H   0  0  0  0  0  0  0  0  0  0  0  0
    0.0842    1.2617    0.3596 C   0  0  0  0  0  0  0  0  0  0  0  0
    0.8153    1.8395    1.1650 O   0  0  0  0  0  0  0  0  0  0  0  0
   -0.8785    1.8982   -0.3162 N   0  0  0  0  0  0  0  0  0  0  0  0
   -1.4870    1.3240   -0.8844 H   0  0  0  0  0  0  0  0  0  0  0  0
   -1.1751    3.3244   -0.1967 C   0  0  0  0  0  0  0  0  0  0  0  0
   -0.2465    3.8986   -0.2217 H   0  0  0  0  0  0  0  0  0  0  0  0
   -1.8176    3.6450   -1.0173 H   0  0  0  0  0  0  0  0  0  0  0  0
   -1.6786    3.5155    0.7532 H   0  0  0  0  0  0  0  0  0  0  0  0
  5  6  2  0  0  0  0
  5  7  1  0  0  0  0
  2  3  1  0  0  0  0
  2  4  1  0  0  0  0
  2  5  1  0  0  0  0
  1  2  1  0  0  0  0
 16 17  2  0  0  0  0
 16 18  1  0  0  0  0
 14 15  1  0  0  0  0
 11 12  1  0  0  0  0
 11 13  1  0  0  0  0
 11 14  1  0  0  0  0
  9 10  1  0  0  0  0
  9 11  1  0  0  0  0
  9 16  1  0  0  0  0
  7  8  1  0  0  0  0
  7  9  1  0  0  0  0
 20 21  1  0  0  0  0
 20 22  1  0  0  0  0
 20 23  1  0  0  0  0
 18 19  1  0  0  0  0
 18 20  1  0  0  0  0
M  END
$$$$
default_name
  -OEChem-01062215323D

 23 22  0     1  0  0  0  0  0999 V2000
   -2.6721   -3.7279    0.7212 H   0  0  0  0  0  0  0  0  0  0  0  0
   -2.6561   -2.6819    0.4162 C   0  0  0  0  0  0  0  0  0  0  0  0
   -3.2401   -2.0889    1.1172 H   0  0  0  0  0  0  0  0  0  0  0  0
   -3.0671   -2.5859   -0.5858 H   0  0  0  0  0  0  0  0  0  0  0  0
   -1.2261   -2.1939    0.4202 C   0  0  0  0  0  0  0  0  0  0  0  0
   -0.3181   -2.9519    0.7312 O   0  0  0  0  0  0  0  0  0  0  0  0
   -1.0281   -0.9259    0.0662 N   0  0  0  0  0  0  0  0  0  0  0  0
   -1.8301   -0.3519   -0.1548 H   0  0  0  0  0  0  0  0  0  0  0  0
    0.2709   -0.2409    0.0912 C   0  0  1  0  0  0  0  0  0  0  0  0
    0.8713   -0.6566    0.9007 H   0  0  0  0  0  0  0  0  0  0  0  0
    1.0166   -0.4872   -1.2267 C   0  0  0  0  0  0  0  0  0  0  0  0
    2.0188   -0.0613   -1.1557 H   0  0  0  0  0  0  0  0  0  0  0  0
    1.1019   -1.5611   -1.4023 H   0  0  0  0  0  0  0  0  0  0  0  0
    0.3398    0.1202   -2.3112 O   0  0  0  0  0  0  0  0  0  0  0  0
    0.9193    0.0951   -3.0803 H   0  0  0  0  0  0  0  0  0  0  0  0
    0.0842    1.2617    0.3596 C   0  0  0  0  0  0  0  0  0  0  0  0
    0.9654    1.8986    0.9382 O   0  0  0  0  0  0  0  0  0  0  0  0
   -1.0479    1.8324   -0.0660 N   0  0  0  0  0  0  0  0  0  0  0  0
   -1.7510    1.2130   -0.4464 H   0  0  0  0  0  0  0  0  0  0  0  0
   -1.3746    3.2487    0.0883 C   0  0  0  0  0  0  0  0  0  0  0  0
   -0.5118    3.8593   -0.1861 H   0  0  0  0  0  0  0  0  0  0  0  0
   -2.2183    3.5118   -0.5505 H   0  0  0  0  0  0  0  0  0  0  0  0
   -1.6311    3.4542    1.1296 H   0  0  0  0  0  0  0  0  0  0  0  0
  5  6  2  0  0  0  0
  5  7  1  0  0  0  0
  2  3  1  0  0  0  0
  2  4  1  0  0  0  0
  2  5  1  0  0  0  0
  1  2  1  0  0  0  0
 16 17  2  0  0  0  0
 16 18  1  0  0  0  0
 14 15  1  0  0  0  0
 11 12  1  0  0  0  0
 11 13  1  0  0  0  0
 11 14  1  0  0  0  0
  9 10  1  0  0  0  0
  9 11  1  0  0  0  0
  9 16  1  0  0  0  0
  7  8  1  0  0  0  0
  7  9  1  0  0  0  0
 20 21  1  0  0  0  0
 20 22  1  0  0  0  0
 20 23  1  0  0  0  0
 18 19  1  0  0  0  0
 18 20  1  0  0  0  0
M  END
$$$$
default_name
  -OEChem-01062215323D

 23 22  0     1  0  0  0  0  0999 V2000
   -2.6721   -3.7279    0.7212 H   0  0  0  0  0  0  0  0  0  0  0  0
   -2.6561   -2.6819    0.4162 C   0  0  0  0  0  0  0  0  0  0  0  0
   -3.2401   -2.0889    1.1172 H   0  0  0  0  0  0  0  0  0  0  0  0
   -3.0671   -2.5859   -0.5858 H   0  0  0  0  0  0  0  0  0  0  0  0
   -1.2261   -2.1939    0.4202 C   0  0  0  0  0  0  0  0  0  0  0  0
   -0.3181   -2.9519    0.7312 O   0  0  0  0  0  0  0  0  0  0  0  0
   -1.0281   -0.9259    0.0662 N   0  0  0  0  0  0  0  0  0  0  0  0
   -1.8301   -0.3519   -0.1548 H   0  0  0  0  0  0  0  0  0  0  0  0
    0.2709   -0.2409    0.0912 C   0  0  1  0  0  0  0  0  0  0  0  0
    0.8713   -0.6566    0.9007 H   0  0  0  0  0  0  0  0  0  0  0  0
    1.0166   -0.4872   -1.2267 C   0  0  0  0  0  0  0  0  0  0  0  0
    2.0188   -0.0613   -1.1557 H   0  0  0  0  0  0  0  0  0  0  0  0
    1.1019   -1.5611   -1.4023 H   0  0  0  0  0  0  0  0  0  0  0  0
    0.3398    0.1202   -2.3112 O   0  0  0  0  0  0  0  0  0  0  0  0
    0.9193    0.0951   -3.0803 H   0  0  0  0  0  0  0  0  0  0  0  0
    0.0842    1.2617    0.3596 C   0  0  0  0  0  0  0  0  0  0  0  0
    1.0504    1.9554    0.6793 O   0  0  0  0  0  0  0  0  0  0  0  0
   -1.1453    1.7691    0.2206 N   0  0  0  0  0  0  0  0  0  0  0  0
   -1.8903    1.1075    0.0469 H   0  0  0  0  0  0  0  0  0  0  0  0
   -1.4919    3.1755    0.4164 C   0  0  0  0  0  0  0  0  0  0  0  0
   -0.7572    3.8104   -0.0834 H   0  0  0  0  0  0  0  0  0  0  0  0
   -2.4812    3.3797    0.0059 H   0  0  0  0  0  0  0  0  0  0  0  0
   -1.4872    3.4089    1.4831 H   0  0  0  0  0  0  0  0  0  0  0  0
  5  6  2  0  0  0  0
  5  7  1  0  0  0  0
  2  3  1  0  0  0  0
  2  4  1  0  0  0  0
  2  5  1  0  0  0  0
  1  2  1  0  0  0  0
 16 17  2  0  0  0  0
 16 18  1  0  0  0  0
 14 15  1  0  0  0  0
 11 12  1  0  0  0  0
 11 13  1  0  0  0  0
 11 14  1  0  0  0  0
  9 10  1  0  0  0  0
  9 11  1  0  0  0  0
  9 16  1  0  0  0  0
  7  8  1  0  0  0  0
  7  9  1  0  0  0  0
 20 21  1  0  0  0  0
 20 22  1  0  0  0  0
 20 23  1  0  0  0  0
 18 19  1  0  0  0  0
 18 20  1  0  0  0  0
M  END
$$$$
default_name
  -OEChem-01062215323D

 23 22  0     1  0  0  0  0  0999 V2000
   -2.6721   -3.7279    0.7212 H   0  0  0  0  0  0  0  0  0  0  0  0
   -2.6561   -2.6819    0.4162 C   0  0  0  0  0  0  0  0  0  0  0  0
   -3.2401   -2.0889    1.1172 H   0  0  0  0  0  0  0  0  0  0  0  0
   -3.0671   -2.5859   -0.5858 H   0  0  0  0  0  0  0  0  0  0  0  0
   -1.2261   -2.1939    0.4202 C   0  0  0  0  0  0  0  0  0  0  0  0
   -0.3181   -2.9519    0.7312 O   0  0  0  0  0  0  0  0  0  0  0  0
   -1.0281   -0.9259    0.0662 N   0  0  0  0  0  0  0  0  0  0  0  0
   -1.8301   -0.3519   -0.1548 H   0  0  0  0  0  0  0  0  0  0  0  0
    0.2709   -0.2409    0.0912 C   0  0  1  0  0  0  0  0  0  0  0  0
    0.8713   -0.6566    0.9007 H   0  0  0  0  0  0  0  0  0  0  0  0
    1.0166   -0.4872   -1.2267 C   0  0  0  0  0  0  0  0  0  0  0  0
    2.0188   -0.0613   -1.1557 H   0  0  0  0  0  0  0  0  0  0  0  0
    1.1019   -1.5611   -1.4023 H   0  0  0  0  0  0  0  0  0  0  0  0
    0.3398    0.1202   -2.3112 O   0  0  0  0  0  0  0  0  0  0  0  0
    0.9193    0.0951   -3.0803 H   0  0  0  0  0  0  0  0  0  0  0  0
    0.0842    1.2617    0.3596 C   0  0  0  0  0  0  0  0  0  0  0  0
    1.0644    2.0060    0.4059 O   0  0  0  0  0  0  0  0  0  0  0  0
   -1.1641    1.7126    0.5241 N   0  0  0  0  0  0  0  0  0  0  0  0
   -1.8952    1.0149    0.5620 H   0  0  0  0  0  0  0  0  0  0  0  0
   -1.5189    3.1098    0.7653 C   0  0  0  0  0  0  0  0  0  0  0  0
   -0.9661    3.7554    0.0794 H   0  0  0  0  0  0  0  0  0  0  0  0
   -2.5885    3.2578    0.6141 H   0  0  0  0  0  0  0  0  0  0  0  0
   -1.2569    3.3827    1.7896 H   0  0  0  0  0  0  0  0  0  0  0  0
  5  6  2  0  0  0  0
  5  7  1  0  0  0  0
  2  3  1  0  0  0  0
  2  4  1  0  0  0  0
  2  5  1  0  0  0  0
  1  2  1  0  0  0  0
 16 17  2  0  0  0  0
 16 18  1  0  0  0  0
 14 15  1  0  0  0  0
 11 12  1  0  0  0  0
 11 13  1  0  0  0  0
 11 14  1  0  0  0  0
  9 10  1  0  0  0  0
  9 11  1  0  0  0  0
  9 16  1  0  0  0  0
  7  8  1  0  0  0  0
  7  9  1  0  0  0  0
 20 21  1  0  0  0  0
 20 22  1  0  0  0  0
 20 23  1  0  0  0  0
 18 19  1  0  0  0  0
 18 20  1  0  0  0  0
M  END
$$$$
default_name
  -OEChem-01062215323D

 23 22  0     1  0  0  0  0  0999 V2000
   -2.6721   -3.7279    0.7212 H   0  0  0  0  0  0  0  0  0  0  0  0
   -2.6561   -2.6819    0.4162 C   0  0  0  0  0  0  0  0  0  0  0  0
   -3.2401   -2.0889    1.1172 H   0  0  0  0  0  0  0  0  0  0  0  0
   -3.0671   -2.5859   -0.5858 H   0  0  0  0  0  0  0  0  0  0  0  0
   -1.2261   -2.1939    0.4202 C   0  0  0  0  0  0  0  0  0  0  0  0
   -0.3181   -2.9519    0.7312 O   0  0  0  0  0  0  0  0  0  0  0  0
   -1.0281   -0.9259    0.0662 N   0  0  0  0  0  0  0  0  0  0  0  0
   -1.8301   -0.3519   -0.1548 H   0  0  0  0  0  0  0  0  0  0  0  0
    0.2709   -0.2409    0.0912 C   0  0  1  0  0  0  0  0  0  0  0  0
    0.8713   -0.6566    0.9007 H   0  0  0  0  0  0  0  0  0  0  0  0
    1.0166   -0.4872   -1.2267 C   0  0  0  0  0  0  0  0  0  0  0  0
    2.0188   -0.0613   -1.1557 H   0  0  0  0  0  0  0  0  0  0  0  0
    1.1019   -1.5611   -1.4023 H   0  0  0  0  0  0  0  0  0  0  0  0
    0.3398    0.1202   -2.3112 O   0  0  0  0  0  0  0  0  0  0  0  0
    0.9193    0.0951   -3.0803 H   0  0  0  0  0  0  0  0  0  0  0  0
    0.0842    1.2617    0.3596 C   0  0  0  0  0  0  0  0  0  0  0  0
    1.0065    2.0469    0.1367 O   0  0  0  0  0  0  0  0  0  0  0  0
   -1.1029    1.6667    0.8237 N   0  0  0  0  0  0  0  0  0  0  0  0
   -1.7656    0.9414    1.0636 H   0  0  0  0  0  0  0  0  0  0  0  0
   -1.4537    3.0561    1.1111 C   0  0  0  0  0  0  0  0  0  0  0  0
   -1.1243    3.6979    0.2913 H   0  0  0  0  0  0  0  0  0  0  0  0
   -2.5329    3.1542    1.2325 H   0  0  0  0  0  0  0  0  0  0  0  0
   -0.9556    3.3775    2.0282 H   0  0  0  0  0  0  0  0  0  0  0  0
  5  6  2  0  0  0  0
  5  7  1  0  0  0  0
  2  3  1  0  0  0  0
  2  4  1  0  0  0  0
  2  5  1  0  0  0  0
  1  2  1  0  0  0  0
 16 17  2  0  0  0  0
 16 18  1  0  0  0  0
 14 15  1  0  0  0  0
 11 12  1  0  0  0  0
 11 13  1  0  0  0  0
 11 14  1  0  0  0  0
  9 10  1  0  0  0  0
  9 11  1  0  0  0  0
  9 16  1  0  0  0  0
  7  8  1  0  0  0  0
  7  9  1  0  0  0  0
 20 21  1  0  0  0  0
 20 22  1  0  0  0  0
 20 23  1  0  0  0  0
 18 19  1  0  0  0  0
 18 20  1  0  0  0  0
M  END
$$$$
default_name
  -OEChem-01062215323D

 23 22  0     1  0  0  0  0  0999 V2000
   -2.6721   -3.7279    0.7212 H   0  0  0  0  0  0  0  0  0  0  0  0
   -2.6561   -2.6819    0.4162 C   0  0  0  0  0  0  0  0  0  0  0  0
   -3.2401   -2.0889    1.1172 H   0  0  0  0  0  0  0  0  0  0  0  0
   -3.0671   -2.5859   -0.5858 H   0  0  0  0  0  0  0  0  0  0  0  0
   -1.2261   -2.1939    0.4202 C   0  0  0  0  0  0  0  0  0  0  0  0
   -0.3181   -2.9519    0.7312 O   0  0  0  0  0  0  0  0  0  0  0  0
   -1.0281   -0.9259    0.0662 N   0  0  0  0  0  0  0  0  0  0  0  0
   -1.8301   -0.3519   -0.1548 H   0  0  0  0  0  0  0  0  0  0  0  0
    0.2709   -0.2409    0.0912 C   0  0  1  0  0  0  0  0  0  0  0  0
    0.8713   -0.6566    0.9007 H   0  0  0  0  0  0  0  0  0  0  0  0
    1.0166   -0.4872   -1.2267 C   0  0  0  0  0  0  0  0  0  0  0  0
    2.0188   -0.0613   -1.1557 H   0  0  0  0  0  0  0  0  0  0  0  0
    1.1019   -1.5611   -1.4023 H   0  0  0  0  0  0  0  0  0  0  0  0
    0.3398    0.1202   -2.3112 O   0  0  0  0  0  0  0  0  0  0  0  0
    0.9193    0.0951   -3.0803 H   0  0  0  0  0  0  0  0  0  0  0  0
    0.0842    1.2617    0.3596 C   0  0  0  0  0  0  0  0  0  0  0  0
    0.8807    2.0753   -0.1099 O   0  0  0  0  0  0  0  0  0  0  0  0
   -0.9659    1.6345    1.0991 N   0  0  0  0  0  0  0  0  0  0  0  0
   -1.5102    0.8920    1.5177 H   0  0  0  0  0  0  0  0  0  0  0  0
   -1.3009    3.0180    1.4304 C   0  0  0  0  0  0  0  0  0  0  0  0
   -1.2209    3.6419    0.5377 H   0  0  0  0  0  0  0  0  0  0  0  0
   -2.3181    3.0761    1.8189 H   0  0  0  0  0  0  0  0  0  0  0  0
   -0.6041    3.3936    2.1826 H   0  0  0  0  0  0  0  0  0  0  0  0
  5  6  2  0  0  0  0
  5  7  1  0  0  0  0
  2  3  1  0  0  0  0
  2  4  1  0  0  0  0
  2  5  1  0  0  0  0
  1  2  1  0  0  0  0
 16 17  2  0  0  0  0
 16 18  1  0  0  0  0
 14 15  1  0  0  0  0
 11 12  1  0  0  0  0
 11 13  1  0  0  0  0
 11 14  1  0  0  0  0
  9 10  1  0  0  0  0
  9 11  1  0  0  0  0
  9 16  1  0  0  0  0
  7  8  1  0  0  0  0
  7  9  1  0  0  0  0
 20 21  1  0  0  0  0
 20 22  1  0  0  0  0
 20 23  1  0  0  0  0
 18 19  1  0  0  0  0
 18 20  1  0  0  0  0
M  END
$$$$
default_name
  -OEChem-01062215323D

 23 22  0     1  0  0  0  0  0999 V2000
   -2.6721   -3.7279    0.7212 H   0  0  0  0  0  0  0  0  0  0  0  0
   -2.6561   -2.6819    0.4162 C   0  0  0  0  0  0  0  0  0  0  0  0
   -3.2401   -2.0889    1.1172 H   0  0  0  0  0  0  0  0  0  0  0  0
   -3.0671   -2.5859   -0.5858 H   0  0  0  0  0  0  0  0  0  0  0  0
   -1.2261   -2.1939    0.4202 C   0  0  0  0  0  0  0  0  0  0  0  0
   -0.3181   -2.9519    0.7312 O   0  0  0  0  0  0  0  0  0  0  0  0
   -1.0281   -0.9259    0.0662 N   0  0  0  0  0  0  0  0  0  0  0  0
   -1.8301   -0.3519   -0.1548 H   0  0  0  0  0  0  0  0  0  0  0  0
    0.2709   -0.2409    0.0912 C   0  0  1  0  0  0  0  0  0  0  0  0
    0.8713   -0.6566    0.9007 H   0  0  0  0  0  0  0  0  0  0  0  0
    1.0166   -0.4872   -1.2267 C   0  0  0  0  0  0  0  0  0  0  0  0
    2.0188   -0.0613   -1.1557 H   0  0  0  0  0  0  0  0  0  0  0  0
    1.1019   -1.5611   -1.4023 H   0  0  0  0  0  0  0  0  0  0  0  0
    0.3398    0.1202   -2.3112 O   0  0  0  0  0  0  0  0  0  0  0  0
    0.9193    0.0951   -3.0803 H   0  0  0  0  0  0  0  0  0  0  0  0
    0.0842    1.2617    0.3596 C   0  0  0  0  0  0  0  0  0  0  0  0
    0.6955    2.0894   -0.3172 O   0  0  0  0  0  0  0  0  0  0  0  0
   -0.7625    1.6182    1.3314 N   0  0  0  0  0  0  0  0  0  0  0  0
   -1.1464    0.8700    1.8933 H   0  0  0  0  0  0  0  0  0  0  0  0
   -1.0708    2.9982    1.7014 C   0  0  0  0  0  0  0  0  0  0  0  0
   -1.2493    3.5912    0.8019 H   0  0  0  0  0  0  0  0  0  0  0  0
   -1.9587    3.0288    2.3336 H   0  0  0  0  0  0  0  0  0  0  0  0
   -0.2262    3.4298    2.2424 H   0  0  0  0  0  0  0  0  0  0  0  0
  5  6  2  0  0  0  0
  5  7  1  0  0  0  0
  2  3  1  0  0  0  0
  2  4  1  0  0  0  0
  2  5  1  0  0  0  0
  1  2  1  0  0  0  0
 16 17  2  0  0  0  0
 16 18  1  0  0  0  0
 14 15  1  0  0  0  0
 11 12  1  0  0  0  0
 11 13  1  0  0  0  0
 11 14  1  0  0  0  0
  9 10  1  0  0  0  0
  9 11  1  0  0  0  0
  9 16  1  0  0  0  0
  7  8  1  0  0  0  0
  7  9  1  0  0  0  0
 20 21  1  0  0  0  0
 20 22  1  0  0  0  0
 20 23  1  0  0  0  0
 18 19  1  0  0  0  0
 18 20  1  0  0  0  0
M  END
$$$$
default_name
  -OEChem-01062215323D

 23 22  0     1  0  0  0  0  0999 V2000
   -2.6721   -3.7279    0.7212 H   0  0  0  0  0  0  0  0  0  0  0  0
   -2.6561   -2.6819    0.4162 C   0  0  0  0  0  0  0  0  0  0  0  0
   -3.2401   -2.0889    1.1172 H   0  0  0  0  0  0  0  0  0  0  0  0
   -3.0671   -2.5859   -0.5858 H   0  0  0  0  0  0  0  0  0  0  0  0
   -1.2261   -2.1939    0.4202 C   0  0  0  0  0  0  0  0  0  0  0  0
   -0.3181   -2.9519    0.7312 O   0  0  0  0  0  0  0  0  0  0  0  0
   -1.0281   -0.9259    0.0662 N   0  0  0  0  0  0  0  0  0  0  0  0
   -1.8301   -0.3519   -0.1548 H   0  0  0  0  0  0  0  0  0  0  0  0
    0.2709   -0.2409    0.0912 C   0  0  1  0  0  0  0  0  0  0  0  0
    0.8713   -0.6566    0.9007 H   0  0  0  0  0  0  0  0  0  0  0  0
    1.0166   -0.4872   -1.2267 C   0  0  0  0  0  0  0  0  0  0  0  0
    2.0188   -0.0613   -1.1557 H   0  0  0  0  0  0  0  0  0  0  0  0
    1.1019   -1.5611   -1.4023 H   0  0  0  0  0  0  0  0  0  0  0  0
    0.3398    0.1202   -2.3112 O   0  0  0  0  0  0  0  0  0  0  0  0
    0.9193    0.0951   -3.0803 H   0  0  0  0  0  0  0  0  0  0  0  0
    0.0842    1.2617    0.3596 C   0  0  0  0  0  0  0  0  0  0  0  0
    0.4636    2.0881   -0.4711 O   0  0  0  0  0  0  0  0  0  0  0  0
   -0.5066    1.6190    1.5050 N   0  0  0  0  0  0  0  0  0  0  0  0
   -0.6990    0.8771    2.1648 H   0  0  0  0  0  0  0  0  0  0  0  0
   -0.7791    2.9979    1.9056 C   0  0  0  0  0  0  0  0  0  0  0  0
   -1.2077    3.5492    1.0658 H   0  0  0  0  0  0  0  0  0  0  0  0
   -1.4793    3.0155    2.7413 H   0  0  0  0  0  0  0  0  0  0  0  0
    0.1523    3.4838    2.2035 H   0  0  0  0  0  0  0  0  0  0  0  0
  5  6  2  0  0  0  0
  5  7  1  0  0  0  0
  2  3  1  0  0  0  0
  2  4  1  0  0  0  0
  2  5  1  0  0  0  0
  1  2  1  0  0  0  0
 16 17  2  0  0  0  0
 16 18  1  0  0  0  0
 14 15  1  0  0  0  0
 11 12  1  0  0  0  0
 11 13  1  0  0  0  0
 11 14  1  0  0  0  0
  9 10  1  0  0  0  0
  9 11  1  0  0  0  0
  9 16  1  0  0  0  0
  7  8  1  0  0  0  0
  7  9  1  0  0  0  0
 20 21  1  0  0  0  0
 20 22  1  0  0  0  0
 20 23  1  0  0  0  0
 18 19  1  0  0  0  0
 18 20  1  0  0  0  0
M  END
$$$$
default_name
  -OEChem-01062215323D

 23 22  0     1  0  0  0  0  0999 V2000
   -2.6721   -3.7279    0.7212 H   0  0  0  0  0  0  0  0  0  0  0  0
   -2.6561   -2.6819    0.4162 C   0  0  0  0  0  0  0  0  0  0  0  0
   -3.2401   -2.0889    1.1172 H   0  0  0  0  0  0  0  0  0  0  0  0
   -3.0671   -2.5859   -0.5858 H   0  0  0  0  0  0  0  0  0  0  0  0
   -1.2261   -2.1939    0.4202 C   0  0  0  0  0  0  0  0  0  0  0  0
   -0.3181   -2.9519    0.7312 O   0  0  0  0  0  0  0  0  0  0  0  0
   -1.0281   -0.9259    0.0662 N   0  0  0  0  0  0  0  0  0  0  0  0
   -1.8301   -0.3519   -0.1548 H   0  0  0  0  0  0  0  0  0  0  0  0
    0.2709   -0.2409    0.0912 C   0  0  1  0  0  0  0  0  0  0  0  0
    0.8713   -0.6566    0.9007 H   0  0  0  0  0  0  0  0  0  0  0  0
    1.0166   -0.4872   -1.2267 C   0  0  0  0  0  0  0  0  0  0  0  0
    2.0188   -0.0613   -1.1557 H   0  0  0  0  0  0  0  0  0  0  0  0
    1.1019   -1.5611   -1.4023 H   0  0  0  0  0  0  0  0  0  0  0  0
    0.3398    0.1202   -2.3112 O   0  0  0  0  0  0  0  0  0  0  0  0
    0.9193    0.0951   -3.0803 H   0  0  0  0  0  0  0  0  0  0  0  0
    0.0842    1.2617    0.3596 C   0  0  0  0  0  0  0  0  0  0  0  0
    0.2007    2.0715   -0.5610 O   0  0  0  0  0  0  0  0  0  0  0  0
   -0.2155    1.6368    1.6078 N   0  0  0  0  0  0  0  0  0  0  0  0
   -0.1986    0.9127    2.3137 H   0  0  0  0  0  0  0  0  0  0  0  0
   -0.4457    3.0173    2.0290 C   0  0  0  0  0  0  0  0  0  0  0  0
   -1.0988    3.5188    1.3116 H   0  0  0  0  0  0  0  0  0  0  0  0
   -0.9125    3.0371    3.0143 H   0  0  0  0  0  0  0  0  0  0  0  0
    0.5056    3.5518    2.0684 H   0  0  0  0  0  0  0  0  0  0  0  0
  5  6  2  0  0  0  0
  5  7  1  0  0  0  0
  2  3  1  0  0  0  0
  2  4  1  0  0  0  0
  2  5  1  0  0  0  0
  1  2  1  0  0  0  0
 16 17  2  0  0  0  0
 16 18  1  0  0  0  0
 14 15  1  0  0  0  0
 11 12  1  0  0  0  0
 11 13  1  0  0  0  0
 11 14  1  0  0  0  0
  9 10  1  0  0  0  0
  9 11  1  0  0  0  0
  9 16  1  0  0  0  0
  7  8  1  0  0  0  0
  7  9  1  0  0  0  0
 20 21  1  0  0  0  0
 20 22  1  0  0  0  0
 20 23  1  0  0  0  0
 18 19  1  0  0  0  0
 18 20  1  0  0  0  0
M  END
$$$$
default_name
  -OEChem-01062215323D

 23 22  0     1  0  0  0  0  0999 V2000
   -2.6721   -3.7279    0.7212 H   0  0  0  0  0  0  0  0  0  0  0  0
   -2.6561   -2.6819    0.4162 C   0  0  0  0  0  0  0  0  0  0  0  0
   -3.2401   -2.0889    1.1172 H   0  0  0  0  0  0  0  0  0  0  0  0
   -3.0671   -2.5859   -0.5858 H   0  0  0  0  0  0  0  0  0  0  0  0
   -1.2261   -2.1939    0.4202 C   0  0  0  0  0  0  0  0  0  0  0  0
   -0.3181   -2.9519    0.7312 O   0  0  0  0  0  0  0  0  0  0  0  0
   -1.0281   -0.9259    0.0662 N   0  0  0  0  0  0  0  0  0  0  0  0
   -1.8301   -0.3519   -0.1548 H   0  0  0  0  0  0  0  0  0  0  0  0
    0.2709   -0.2409    0.0912 C   0  0  1  0  0  0  0  0  0  0  0  0
    0.8713   -0.6566    0.9007 H   0  0  0  0  0  0  0  0  0  0  0  0
    1.0166   -0.4872   -1.2267 C   0  0  0  0  0  0  0  0  0  0  0  0
    2.0188   -0.0613   -1.1557 H   0  0  0  0  0  0  0  0  0  0  0  0
    1.1019   -1.5611   -1.4023 H   0  0  0  0  0  0  0  0  0  0  0  0
    0.3398    0.1202   -2.3112 O   0  0  0  0  0  0  0  0  0  0  0  0
    0.9193    0.0951   -3.0803 H   0  0  0  0  0  0  0  0  0  0  0  0
    0.0842    1.2617    0.3596 C   0  0  0  0  0  0  0  0  0  0  0  0
   -0.0753    2.0407   -0.5808 O   0  0  0  0  0  0  0  0  0  0  0  0
    0.0909    1.6703    1.6330 N   0  0  0  0  0  0  0  0  0  0  0  0
    0.3209    0.9743    2.3298 H   0  0  0  0  0  0  0  0  0  0  0  0
   -0.0934    3.0549    2.0634 C   0  0  0  0  0  0  0  0  0  0  0  0
   -0.9301    3.5021    1.5224 H   0  0  0  0  0  0  0  0  0  0  0  0
   -0.2970    3.0922    3.1339 H   0  0  0  0  0  0  0  0  0  0  0  0
    0.8097    3.6292    1.8464 H   0  0  0  0  0  0  0  0  0  0  0  0
  5  6  2  0  0  0  0
  5  7  1  0  0  0  0
  2  3  1  0  0  0  0
  2  4  1  0  0  0  0
  2  5  1  0  0  0  0
  1  2  1  0  0  0  0
 16 17  2  0  0  0  0
 16 18  1  0  0  0  0
 14 15  1  0  0  0  0
 11 12  1  0  0  0  0
 11 13  1  0  0  0  0
 11 14  1  0  0  0  0
  9 10  1  0  0  0  0
  9 11  1  0  0  0  0
  9 16  1  0  0  0  0
  7  8  1  0  0  0  0
  7  9  1  0  0  0  0
 20 21  1  0  0  0  0
 20 22  1  0  0  0  0
 20 23  1  0  0  0  0
 18 19  1  0  0  0  0
 18 20  1  0  0  0  0
M  END
$$$$
default_name
  -OEChem-01062215323D

 23 22  0     1  0  0  0  0  0999 V2000
   -2.6721   -3.7279    0.7212 H   0  0  0  0  0  0  0  0  0  0  0  0
   -2.6561   -2.6819    0.4162 C   0  0  0  0  0  0  0  0  0  0  0  0
   -3.2401   -2.0889    1.1172 H   0  0  0  0  0  0  0  0  0  0  0  0
   -3.0671   -2.5859   -0.5858 H   0  0  0  0  0  0  0  0  0  0  0  0
   -1.2261   -2.1939    0.4202 C   0  0  0  0  0  0  0  0  0  0  0  0
   -0.3181   -2.9519    0.7312 O   0  0  0  0  0  0  0  0  0  0  0  0
   -1.0281   -0.9259    0.0662 N   0  0  0  0  0  0  0  0  0  0  0  0
   -1.8301   -0.3519   -0.1548 H   0  0  0  0  0  0  0  0  0  0  0  0
    0.2709   -0.2409    0.0912 C   0  0  1  0  0  0  0  0  0  0  0  0
    0.8713   -0.6566    0.9007 H   0  0  0  0  0  0  0  0  0  0  0  0
    1.0166   -0.4872   -1.2267 C   0  0  0  0  0  0  0  0  0  0  0  0
    2.0188   -0.0613   -1.1557 H   0  0  0  0  0  0  0  0  0  0  0  0
    1.1019   -1.5611   -1.4023 H   0  0  0  0  0  0  0  0  0  0  0  0
    0.3398    0.1202   -2.3112 O   0  0  0  0  0  0  0  0  0  0  0  0
    0.9193    0.0951   -3.0803 H   0  0  0  0  0  0  0  0  0  0  0  0
    0.0842    1.2617    0.3596 C   0  0  0  0  0  0  0  0  0  0  0  0
   -0.3454    1.9980   -0.5293 O   0  0  0  0  0  0  0  0  0  0  0  0
    0.3917    1.7174    1.5788 N   0  0  0  0  0  0  0  0  0  0  0  0
    0.8239    1.0578    2.2121 H   0  0  0  0  0  0  0  0  0  0  0  0
    0.2540    3.1083    2.0062 C   0  0  0  0  0  0  0  0  0  0  0  0
   -0.7131    3.5002    1.6839 H   0  0  0  0  0  0  0  0  0  0  0  0
    0.3253    3.1770    3.0921 H   0  0  0  0  0  0  0  0  0  0  0  0
    1.0437    3.7108    1.5527 H   0  0  0  0  0  0  0  0  0  0  0  0
  5  6  2  0  0  0  0
  5  7  1  0  0  0  0
  2  3  1  0  0  0  0
  2  4  1  0  0  0  0
  2  5  1  0  0  0  0
  1  2  1  0  0  0  0
 16 17  2  0  0  0  0
 16 18  1  0  0  0  0
 14 15  1  0  0  0  0
 11 12  1  0  0  0  0
 11 13  1  0  0  0  0
 11 14  1  0  0  0  0
  9 10  1  0  0  0  0
  9 11  1  0  0  0  0
  9 16  1  0  0  0  0
  7  8  1  0  0  0  0
  7  9  1  0  0  0  0
 20 21  1  0  0  0  0
 20 22  1  0  0  0  0
 20 23  1  0  0  0  0
 18 19  1  0  0  0  0
 18 20  1  0  0  0  0
M  END
$$$$
default_name
  -OEChem-01062215323D

 23 22  0     1  0  0  0  0  0999 V2000
   -2.6721   -3.7279    0.7212 H   0  0  0  0  0  0  0  0  0  0  0  0
   -2.6561   -2.6819    0.4162 C   0  0  0  0  0  0  0  0  0  0  0  0
   -3.2401   -2.0889    1.1172 H   0  0  0  0  0  0  0  0  0  0  0  0
   -3.0671   -2.5859   -0.5858 H   0  0  0  0  0  0  0  0  0  0  0  0
   -1.2261   -2.1939    0.4202 C   0  0  0  0  0  0  0  0  0  0  0  0
   -0.3181   -2.9519    0.7312 O   0  0  0  0  0  0  0  0  0  0  0  0
   -1.0281   -0.9259    0.0662 N   0  0  0  0  0  0  0  0  0  0  0  0
   -1.8301   -0.3519   -0.1548 H   0  0  0  0  0  0  0  0  0  0  0  0
    0.2709   -0.2409    0.0912 C   0  0  1  0  0  0  0  0  0  0  0  0
    0.8713   -0.6566    0.9007 H   0  0  0  0  0  0  0  0  0  0  0  0
    1.0166   -0.4872   -1.2267 C   0  0  0  0  0  0  0  0  0  0  0  0
    2.0188   -0.0613   -1.1557 H   0  0  0  0  0  0  0  0  0  0  0  0
    1.1019   -1.5611   -1.4023 H   0  0  0  0  0  0  0  0  0  0  0  0
    0.3398    0.1202   -2.3112 O   0  0  0  0  0  0  0  0  0  0  0  0
    0.9193    0.0951   -3.0803 H   0  0  0  0  0  0  0  0  0  0  0  0
    0.0842    1.2617    0.3596 C   0  0  0  0  0  0  0  0  0  0  0  0
   -0.5914    1.9461   -0.4098 O   0  0  0  0  0  0  0  0  0  0  0  0
    0.6664    1.7747    1.4489 N   0  0  0  0  0  0  0  0  0  0  0  0
    1.2763    1.1575    1.9685 H   0  0  0  0  0  0  0  0  0  0  0  0
    0.5726    3.1737    1.8615 C   0  0  0  0  0  0  0  0  0  0  0  0
   -0.4625    3.5132    1.7851 H   0  0  0  0  0  0  0  0  0  0  0  0
    0.9120    3.2856    2.8917 H   0  0  0  0  0  0  0  0  0  0  0  0
    1.1919    3.7909    1.2073 H   0  0  0  0  0  0  0  0  0  0  0  0
  5  6  2  0  0  0  0
  5  7  1  0  0  0  0
  2  3  1  0  0  0  0
  2  4  1  0  0  0  0
  2  5  1  0  0  0  0
  1  2  1  0  0  0  0
 16 17  2  0  0  0  0
 16 18  1  0  0  0  0
 14 15  1  0  0  0  0
 11 12  1  0  0  0  0
 11 13  1  0  0  0  0
 11 14  1  0  0  0  0
  9 10  1  0  0  0  0
  9 11  1  0  0  0  0
  9 16  1  0  0  0  0
  7  8  1  0  0  0  0
  7  9  1  0  0  0  0
 20 21  1  0  0  0  0
 20 22  1  0  0  0  0
 20 23  1  0  0  0  0
 18 19  1  0  0  0  0
 18 20  1  0  0  0  0
M  END
$$$$
default_name
  -OEChem-01062215323D

 23 22  0     1  0  0  0  0  0999 V2000
   -2.6721   -3.7279    0.7212 H   0  0  0  0  0  0  0  0  0  0  0  0
   -2.6561   -2.6819    0.4162 C   0  0  0  0  0  0  0  0  0  0  0  0
   -3.2401   -2.0889    1.1172 H   0  0  0  0  0  0  0  0  0  0  0  0
   -3.0671   -2.5859   -0.5858 H   0  0  0  0  0  0  0  0  0  0  0  0
   -1.2261   -2.1939    0.4202 C   0  0  0  0  0  0  0  0  0  0  0  0
   -0.3181   -2.9519    0.7312 O   0  0  0  0  0  0  0  0  0  0  0  0
   -1.0281   -0.9259    0.0662 N   0  0  0  0  0  0  0  0  0  0  0  0
   -1.8301   -0.3519   -0.1548 H   0  0  0  0  0  0  0  0  0  0  0  0
    0.2709   -0.2409    0.0912 C   0  0  1  0  0  0  0  0  0  0  0  0
    0.8713   -0.6566    0.9007 H   0  0  0  0  0  0  0  0  0  0  0  0
    1.0166   -0.4872   -1.2267 C   0  0  0  0  0  0  0  0  0  0  0  0
    2.0188   -0.0613   -1.1557 H   0  0  0  0  0  0  0  0  0  0  0  0
    1.1019   -1.5611   -1.4023 H   0  0  0  0  0  0  0  0  0  0  0  0
    0.3398    0.1202   -2.3112 O   0  0  0  0  0  0  0  0  0  0  0  0
    0.9193    0.0951   -3.0803 H   0  0  0  0  0  0  0  0  0  0  0  0
    0.0842    1.2617    0.3596 C   0  0  0  0  0  0  0  0  0  0  0  0
   -0.7964    1.8886   -0.2305 O   0  0  0  0  0  0  0  0  0  0  0  0
    0.8963    1.8384    1.2522 N   0  0  0  0  0  0  0  0  0  0  0  0
    1.6471    1.2666    1.6157 H   0  0  0  0  0  0  0  0  0  0  0  0
    0.8409    3.2468    1.6391 C   0  0  0  0  0  0  0  0  0  0  0  0
   -0.1955    3.5403    1.8191 H   0  0  0  0  0  0  0  0  0  0  0  0
    1.4231    3.4108    2.5463 H   0  0  0  0  0  0  0  0  0  0  0  0
    1.2439    3.8641    0.8336 H   0  0  0  0  0  0  0  0  0  0  0  0
  5  6  2  0  0  0  0
  5  7  1  0  0  0  0
  2  3  1  0  0  0  0
  2  4  1  0  0  0  0
  2  5  1  0  0  0  0
  1  2  1  0  0  0  0
 16 17  2  0  0  0  0
 16 18  1  0  0  0  0
 14 15  1  0  0  0  0
 11 12  1  0  0  0  0
 11 13  1  0  0  0  0
 11 14  1  0  0  0  0
  9 10  1  0  0  0  0
  9 11  1  0  0  0  0
  9 16  1  0  0  0  0
  7  8  1  0  0  0  0
  7  9  1  0  0  0  0
 20 21  1  0  0  0  0
 20 22  1  0  0  0  0
 20 23  1  0  0  0  0
 18 19  1  0  0  0  0
 18 20  1  0  0  0  0
M  END
$$$$
default_name
  -OEChem-01062215323D

 23 22  0     1  0  0  0  0  0999 V2000
   -2.6721   -3.7279    0.7212 H   0  0  0  0  0  0  0  0  0  0  0  0
   -2.6561   -2.6819    0.4162 C   0  0  0  0  0  0  0  0  0  0  0  0
   -3.2401   -2.0889    1.1172 H   0  0  0  0  0  0  0  0  0  0  0  0
   -3.0671   -2.5859   -0.5858 H   0  0  0  0  0  0  0  0  0  0  0  0
   -1.2261   -2.1939    0.4202 C   0  0  0  0  0  0  0  0  0  0  0  0
   -0.3181   -2.9519    0.7312 O   0  0  0  0  0  0  0  0  0  0  0  0
   -1.0281   -0.9259    0.0662 N   0  0  0  0  0  0  0  0  0  0  0  0
   -1.8301   -0.3519   -0.1548 H   0  0  0  0  0  0  0  0  0  0  0  0
    0.2709   -0.2409    0.0912 C   0  0  1  0  0  0  0  0  0  0  0  0
    0.8713   -0.6566    0.9007 H   0  0  0  0  0  0  0  0  0  0  0  0
    1.0166   -0.4872   -1.2267 C   0  0  0  0  0  0  0  0  0  0  0  0
    2.0188   -0.0613   -1.1557 H   0  0  0  0  0  0  0  0  0  0  0  0
    1.1019   -1.5611   -1.4023 H   0  0  0  0  0  0  0  0  0  0  0  0
    0.3398    0.1202   -2.3112 O   0  0  0  0  0  0  0  0  0  0  0  0
    0.9193    0.0951   -3.0803 H   0  0  0  0  0  0  0  0  0  0  0  0
    0.0842    1.2617    0.3596 C   0  0  0  0  0  0  0  0  0  0  0  0
   -0.9465    1.8294   -0.0037 O   0  0  0  0  0  0  0  0  0  0  0  0
    1.0657    1.9042    1.0020 N   0  0  0  0  0  0  0  0  0  0  0  0
    1.9112    1.3776    1.1777 H   0  0  0  0  0  0  0  0  0  0  0  0
    1.0404    3.3225    1.3541 C   0  0  0  0  0  0  0  0  0  0  0  0
    0.0697    3.5796    1.7835 H   0  0  0  0  0  0  0  0  0  0  0  0
    1.8238    3.5440    2.0795 H   0  0  0  0  0  0  0  0  0  0  0  0
    1.1964    3.9255    0.4572 H   0  0  0  0  0  0  0  0  0  0  0  0
  5  6  2  0  0  0  0
  5  7  1  0  0  0  0
  2  3  1  0  0  0  0
  2  4  1  0  0  0  0
  2  5  1  0  0  0  0
  1  2  1  0  0  0  0
 16 17  2  0  0  0  0
 16 18  1  0  0  0  0
 14 15  1  0  0  0  0
 11 12  1  0  0  0  0
 11 13  1  0  0  0  0
 11 14  1  0  0  0  0
  9 10  1  0  0  0  0
  9 11  1  0  0  0  0
  9 16  1  0  0  0  0
  7  8  1  0  0  0  0
  7  9  1  0  0  0  0
 20 21  1  0  0  0  0
 20 22  1  0  0  0  0
 20 23  1  0  0  0  0
 18 19  1  0  0  0  0
 18 20  1  0  0  0  0
M  END
$$$$
default_name
  -OEChem-01062215323D

 23 22  0     1  0  0  0  0  0999 V2000
   -2.6721   -3.7279    0.7212 H   0  0  0  0  0  0  0  0  0  0  0  0
   -2.6561   -2.6819    0.4162 C   0  0  0  0  0  0  0  0  0  0  0  0
   -3.2401   -2.0889    1.1172 H   0  0  0  0  0  0  0  0  0  0  0  0
   -3.0671   -2.5859   -0.5858 H   0  0  0  0  0  0  0  0  0  0  0  0
   -1.2261   -2.1939    0.4202 C   0  0  0  0  0  0  0  0  0  0  0  0
   -0.3181   -2.9519    0.7312 O   0  0  0  0  0  0  0  0  0  0  0  0
   -1.0281   -0.9259    0.0662 N   0  0  0  0  0  0  0  0  0  0  0  0
   -1.8301   -0.3519   -0.1548 H   0  0  0  0  0  0  0  0  0  0  0  0
    0.2709   -0.2409    0.0912 C   0  0  1  0  0  0  0  0  0  0  0  0
    0.8713   -0.6566    0.9007 H   0  0  0  0  0  0  0  0  0  0  0  0
    1.0166   -0.4872   -1.2267 C   0  0  0  0  0  0  0  0  0  0  0  0
    2.0188   -0.0613   -1.1557 H   0  0  0  0  0  0  0  0  0  0  0  0
    1.1019   -1.5611   -1.4023 H   0  0  0  0  0  0  0  0  0  0  0  0
    0.3398    0.1202   -2.3112 O   0  0  0  0  0  0  0  0  0  0  0  0
    0.9193    0.0951   -3.0803 H   0  0  0  0  0  0  0  0  0  0  0  0
    0.0842    1.2617    0.3596 C   0  0  0  0  0  0  0  0  0  0  0  0
   -1.0315    1.7726    0.2552 O   0  0  0  0  0  0  0  0  0  0  0  0
    1.1631    1.9675    0.7154 N   0  0  0  0  0  0  0  0  0  0  0  0
    2.0504    1.4831    0.6843 H   0  0  0  0  0  0  0  0  0  0  0  0
    1.1577    3.3956    1.0260 C   0  0  0  0  0  0  0  0  0  0  0  0
    0.3152    3.6284    1.6808 H   0  0  0  0  0  0  0  0  0  0  0  0
    2.0868    3.6761    1.5230 H   0  0  0  0  0  0  0  0  0  0  0  0
    1.0526    3.9708    0.1037 H   0  0  0  0  0  0  0  0  0  0  0  0
  5  6  2  0  0  0  0
  5  7  1  0  0  0  0
  2  3  1  0  0  0  0
  2  4  1  0  0  0  0
  2  5  1  0  0  0  0
  1  2  1  0  0  0  0
 16 17  2  0  0  0  0
 16 18  1  0  0  0  0
 14 15  1  0  0  0  0
 11 12  1  0  0  0  0
 11 13  1  0  0  0  0
 11 14  1  0  0  0  0
  9 10  1  0  0  0  0
  9 11  1  0  0  0  0
  9 16  1  0  0  0  0
  7  8  1  0  0  0  0
  7  9  1  0  0  0  0
 20 21  1  0  0  0  0
 20 22  1  0  0  0  0
 20 23  1  0  0  0  0
 18 19  1  0  0  0  0
 18 20  1  0  0  0  0
M  END
$$$$
default_name
  -OEChem-01062215323D

 23 22  0     1  0  0  0  0  0999 V2000
   -2.6721   -3.7279    0.7212 H   0  0  0  0  0  0  0  0  0  0  0  0
   -2.6561   -2.6819    0.4162 C   0  0  0  0  0  0  0  0  0  0  0  0
   -3.2401   -2.0889    1.1172 H   0  0  0  0  0  0  0  0  0  0  0  0
   -3.0671   -2.5859   -0.5858 H   0  0  0  0  0  0  0  0  0  0  0  0
   -1.2261   -2.1939    0.4202 C   0  0  0  0  0  0  0  0  0  0  0  0
   -0.3181   -2.9519    0.7312 O   0  0  0  0  0  0  0  0  0  0  0  0
   -1.0281   -0.9259    0.0662 N   0  0  0  0  0  0  0  0  0  0  0  0
   -1.8301   -0.3519   -0.1548 H   0  0  0  0  0  0  0  0  0  0  0  0
    0.2709   -0.2409    0.0912 C   0  0  1  0  0  0  0  0  0  0  0  0
    0.9610   -0.8195    0.7057 H   0  0  0  0  0  0  0  0  0  0  0  0
    0.8490   -0.1656   -1.3279 C   0  0  0  0  0  0  0  0  0  0  0  0
    1.8565    0.2512   -1.2822 H   0  0  0  0  0  0  0  0  0  0  0  0
    0.9020   -1.1691   -1.7539 H   0  0  0  0  0  0  0  0  0  0  0  0
    0.0516    0.6611   -2.1549 O   0  0  0  0  0  0  0  0  0  0  0  0
    0.5332    0.8232   -2.9732 H   0  0  0  0  0  0  0  0  0  0  0  0
    0.1327    1.1568    0.7173 C   0  0  0  0  0  0  0  0  0  0  0  0
   -0.9638    1.5454    1.1217 O   0  0  0  0  0  0  0  0  0  0  0  0
    1.2359    1.9071    0.8105 N   0  0  0  0  0  0  0  0  0  0  0  0
    2.0691    1.5424    0.3684 H   0  0  0  0  0  0  0  0  0  0  0  0
    1.2846    3.2455    1.3958 C   0  0  0  0  0  0  0  0  0  0  0  0
    0.7331    3.2573    2.3383 H   0  0  0  0  0  0  0  0  0  0  0  0
    2.3187    3.5375    1.5813 H   0  0  0  0  0  0  0  0  0  0  0  0
    0.8234    3.9613    0.7122 H   0  0  0  0  0  0  0  0  0  0  0  0
  5  6  2  0  0  0  0
  5  7  1  0  0  0  0
  2  3  1  0  0  0  0
  2  4  1  0  0  0  0
  2  5  1  0  0  0  0
  1  2  1  0  0  0  0
 16 17  2  0  0  0  0
 16 18  1  0  0  0  0
 14 15  1  0  0  0  0
 11 12  1  0  0  0  0
 11 13  1  0  0  0  0
 11 14  1  0  0  0  0
  9 10  1  0  0  0  0
  9 11  1  0  0  0  0
  9 16  1  0  0  0  0
  7  8  1  0  0  0  0
  7  9  1  0  0  0  0
 20 21  1  0  0  0  0
 20 22  1  0  0  0  0
 20 23  1  0  0  0  0
 18 19  1  0  0  0  0
 18 20  1  0  0  0  0
M  END
$$$$
default_name
  -OEChem-01062215323D

 23 22  0     1  0  0  0  0  0999 V2000
   -2.6721   -3.7279    0.7212 H   0  0  0  0  0  0  0  0  0  0  0  0
   -2.6561   -2.6819    0.4162 C   0  0  0  0  0  0  0  0  0  0  0  0
   -3.2401   -2.0889    1.1172 H   0  0  0  0  0  0  0  0  0  0  0  0
   -3.0671   -2.5859   -0.5858 H   0  0  0  0  0  0  0  0  0  0  0  0
   -1.2261   -2.1939    0.4202 C   0  0  0  0  0  0  0  0  0  0  0  0
   -0.3181   -2.9519    0.7312 O   0  0  0  0  0  0  0  0  0  0  0  0
   -1.0281   -0.9259    0.0662 N   0  0  0  0  0  0  0  0  0  0  0  0
   -1.8301   -0.3519   -0.1548 H   0  0  0  0  0  0  0  0  0  0  0  0
    0.2709   -0.2409    0.0912 C   0  0  1  0  0  0  0  0  0  0  0  0
    0.9610   -0.8195    0.7057 H   0  0  0  0  0  0  0  0  0  0  0  0
    0.8490   -0.1656   -1.3279 C   0  0  0  0  0  0  0  0  0  0  0  0
    1.8565    0.2512   -1.2822 H   0  0  0  0  0  0  0  0  0  0  0  0
    0.9020   -1.1691   -1.7539 H   0  0  0  0  0  0  0  0  0  0  0  0
    0.0516    0.6611   -2.1549 O   0  0  0  0  0  0  0  0  0  0  0  0
    0.5332    0.8232   -2.9732 H   0  0  0  0  0  0  0  0  0  0  0  0
    0.1327    1.1568    0.7173 C   0  0  0  0  0  0  0  0  0  0  0  0
   -0.8741    1.4451    1.3654 O   0  0  0  0  0  0  0  0  0  0  0  0
    1.1392    2.0192    0.5390 N   0  0  0  0  0  0  0  0  0  0  0  0
    1.8804    1.7262   -0.0837 H   0  0  0  0  0  0  0  0  0  0  0  0
    1.1785    3.3757    1.0818 C   0  0  0  0  0  0  0  0  0  0  0  0
    0.8649    3.3646    2.1279 H   0  0  0  0  0  0  0  0  0  0  0  0
    2.1895    3.7787    1.0144 H   0  0  0  0  0  0  0  0  0  0  0  0
    0.4955    4.0154    0.5191 H   0  0  0  0  0  0  0  0  0  0  0  0
  5  6  2  0  0  0  0
  5  7  1  0  0  0  0
  2  3  1  0  0  0  0
  2  4  1  0  0  0  0
  2  5  1  0  0  0  0
  1  2  1  0  0  0  0
 16 17  2  0  0  0  0
 16 18  1  0  0  0  0
 14 15  1  0  0  0  0
 11 12  1  0  0  0  0
 11 13  1  0  0  0  0
 11 14  1  0  0  0  0
  9 10  1  0  0  0  0
  9 11  1  0  0  0  0
  9 16  1  0  0  0  0
  7  8  1  0  0  0  0
  7  9  1  0  0  0  0
 20 21  1  0  0  0  0
 20 22  1  0  0  0  0
 20 23  1  0  0  0  0
 18 19  1  0  0  0  0
 18 20  1  0  0  0  0
M  END
$$$$
default_name
  -OEChem-01062215323D

 23 22  0     1  0  0  0  0  0999 V2000
   -2.6721   -3.7279    0.7212 H   0  0  0  0  0  0  0  0  0  0  0  0
   -2.6561   -2.6819    0.4162 C   0  0  0  0  0  0  0  0  0  0  0  0
   -3.2401   -2.0889    1.1172 H   0  0  0  0  0  0  0  0  0  0  0  0
   -3.0671   -2.5859   -0.5858 H   0  0  0  0  0  0  0  0  0  0  0  0
   -1.2261   -2.1939    0.4202 C   0  0  0  0  0  0  0  0  0  0  0  0
   -0.3181   -2.9519    0.7312 O   0  0  0  0  0  0  0  0  0  0  0  0
   -1.0281   -0.9259    0.0662 N   0  0  0  0  0  0  0  0  0  0  0  0
   -1.8301   -0.3519   -0.1548 H   0  0  0  0  0  0  0  0  0  0  0  0
    0.2709   -0.2409    0.0912 C   0  0  1  0  0  0  0  0  0  0  0  0
    0.9610   -0.8195    0.7057 H   0  0  0  0  0  0  0  0  0  0  0  0
    0.8490   -0.1656   -1.3279 C   0  0  0  0  0  0  0  0  0  0  0  0
    1.8565    0.2512   -1.2822 H   0  0  0  0  0  0  0  0  0  0  0  0
    0.9020   -1.1691   -1.7539 H   0  0  0  0  0  0  0  0  0  0  0  0
    0.0516    0.6611   -2.1549 O   0  0  0  0  0  0  0  0  0  0  0  0
    0.5332    0.8232   -2.9732 H   0  0  0  0  0  0  0  0  0  0  0  0
    0.1327    1.1568    0.7173 C   0  0  0  0  0  0  0  0  0  0  0  0
   -0.7196    1.3634    1.5820 O   0  0  0  0  0  0  0  0  0  0  0  0
    0.9702    2.1109    0.2968 N   0  0  0  0  0  0  0  0  0  0  0  0
    1.5723    1.8734   -0.4803 H   0  0  0  0  0  0  0  0  0  0  0  0
    0.9885    3.4829    0.8005 C   0  0  0  0  0  0  0  0  0  0  0  0
    0.9315    3.4772    1.8911 H   0  0  0  0  0  0  0  0  0  0  0  0
    1.9059    3.9848    0.4916 H   0  0  0  0  0  0  0  0  0  0  0  0
    0.1277    4.0285    0.4085 H   0  0  0  0  0  0  0  0  0  0  0  0
  5  6  2  0  0  0  0
  5  7  1  0  0  0  0
  2  3  1  0  0  0  0
  2  4  1  0  0  0  0
  2  5  1  0  0  0  0
  1  2  1  0  0  0  0
 16 17  2  0  0  0  0
 16 18  1  0  0  0  0
 14 15  1  0  0  0  0
 11 12  1  0  0  0  0
 11 13  1  0  0  0  0
 11 14  1  0  0  0  0
  9 10  1  0  0  0  0
  9 11  1  0  0  0  0
  9 16  1  0  0  0  0
  7  8  1  0  0  0  0
  7  9  1  0  0  0  0
 20 21  1  0  0  0  0
 20 22  1  0  0  0  0
 20 23  1  0  0  0  0
 18 19  1  0  0  0  0
 18 20  1  0  0  0  0
M  END
$$$$
default_name
  -OEChem-01062215323D

 23 22  0     1  0  0  0  0  0999 V2000
   -2.6721   -3.7279    0.7212 H   0  0  0  0  0  0  0  0  0  0  0  0
   -2.6561   -2.6819    0.4162 C   0  0  0  0  0  0  0  0  0  0  0  0
   -3.2401   -2.0889    1.1172 H   0  0  0  0  0  0  0  0  0  0  0  0
   -3.0671   -2.5859   -0.5858 H   0  0  0  0  0  0  0  0  0  0  0  0
   -1.2261   -2.1939    0.4202 C   0  0  0  0  0  0  0  0  0  0  0  0
   -0.3181   -2.9519    0.7312 O   0  0  0  0  0  0  0  0  0  0  0  0
   -1.0281   -0.9259    0.0662 N   0  0  0  0  0  0  0  0  0  0  0  0
   -1.8301   -0.3519   -0.1548 H   0  0  0  0  0  0  0  0  0  0  0  0
    0.2709   -0.2409    0.0912 C   0  0  1  0  0  0  0  0  0  0  0  0
    0.9610   -0.8195    0.7057 H   0  0  0  0  0  0  0  0  0  0  0  0
    0.8490   -0.1656   -1.3279 C   0  0  0  0  0  0  0  0  0  0  0  0
    1.8565    0.2512   -1.2822 H   0  0  0  0  0  0  0  0  0  0  0  0
    0.9020   -1.1691   -1.7539 H   0  0  0  0  0  0  0  0  0  0  0  0
    0.0516    0.6611   -2.1549 O   0  0  0  0  0  0  0  0  0  0  0  0
    0.5332    0.8232   -2.9732 H   0  0  0  0  0  0  0  0  0  0  0  0
    0.1327    1.1568    0.7173 C   0  0  0  0  0  0  0  0  0  0  0  0
   -0.5108    1.3057    1.7568 O   0  0  0  0  0  0  0  0  0  0  0  0
    0.7404    2.1761    0.1006 N   0  0  0  0  0  0  0  0  0  0  0  0
    1.1659    1.9739   -0.7944 H   0  0  0  0  0  0  0  0  0  0  0  0
    0.7275    3.5599    0.5709 C   0  0  0  0  0  0  0  0  0  0  0  0
    0.9282    3.5876    1.6441 H   0  0  0  0  0  0  0  0  0  0  0  0
    1.4873    4.1419    0.0485 H   0  0  0  0  0  0  0  0  0  0  0  0
   -0.2550    3.9999    0.3879 H   0  0  0  0  0  0  0  0  0  0  0  0
  5  6  2  0  0  0  0
  5  7  1  0  0  0  0
  2  3  1  0  0  0  0
  2  4  1  0  0  0  0
  2  5  1  0  0  0  0
  1  2  1  0  0  0  0
 16 17  2  0  0  0  0
 16 18  1  0  0  0  0
 14 15  1  0  0  0  0
 11 12  1  0  0  0  0
 11 13  1  0  0  0  0
 11 14  1  0  0  0  0
  9 10  1  0  0  0  0
  9 11  1  0  0  0  0
  9 16  1  0  0  0  0
  7  8  1  0  0  0  0
  7  9  1  0  0  0  0
 20 21  1  0  0  0  0
 20 22  1  0  0  0  0
 20 23  1  0  0  0  0
 18 19  1  0  0  0  0
 18 20  1  0  0  0  0
M  END
$$$$
default_name
  -OEChem-01062215323D

 23 22  0     1  0  0  0  0  0999 V2000
   -2.6721   -3.7279    0.7212 H   0  0  0  0  0  0  0  0  0  0  0  0
   -2.6561   -2.6819    0.4162 C   0  0  0  0  0  0  0  0  0  0  0  0
   -3.2401   -2.0889    1.1172 H   0  0  0  0  0  0  0  0  0  0  0  0
   -3.0671   -2.5859   -0.5858 H   0  0  0  0  0  0  0  0  0  0  0  0
   -1.2261   -2.1939    0.4202 C   0  0  0  0  0  0  0  0  0  0  0  0
   -0.3181   -2.9519    0.7312 O   0  0  0  0  0  0  0  0  0  0  0  0
   -1.0281   -0.9259    0.0662 N   0  0  0  0  0  0  0  0  0  0  0  0
   -1.8301   -0.3519   -0.1548 H   0  0  0  0  0  0  0  0  0  0  0  0
    0.2709   -0.2409    0.0912 C   0  0  1  0  0  0  0  0  0  0  0  0
    0.9610   -0.8195    0.7057 H   0  0  0  0  0  0  0  0  0  0  0  0
    0.8490   -0.1656   -1.3279 C   0  0  0  0  0  0  0  0  0  0  0  0
    1.8565    0.2512   -1.2822 H   0  0  0  0  0  0  0  0  0  0  0  0
    0.9020   -1.1691   -1.7539 H   0  0  0  0  0  0  0  0  0  0  0  0
    0.0516    0.6611   -2.1549 O   0  0  0  0  0  0  0  0  0  0  0  0
    0.5332    0.8232   -2.9732 H   0  0  0  0  0  0  0  0  0  0  0  0
    0.1327    1.1568    0.7173 C   0  0  0  0  0  0  0  0  0  0  0  0
   -0.2619    1.2761    1.8778 O   0  0  0  0  0  0  0  0  0  0  0  0
    0.4653    2.2103   -0.0365 N   0  0  0  0  0  0  0  0  0  0  0  0
    0.6889    2.0209   -1.0045 H   0  0  0  0  0  0  0  0  0  0  0  0
    0.4132    3.6014    0.4088 C   0  0  0  0  0  0  0  0  0  0  0  0
    0.8552    3.6880    1.4037 H   0  0  0  0  0  0  0  0  0  0  0  0
    0.9621    4.2392   -0.2846 H   0  0  0  0  0  0  0  0  0  0  0  0
   -0.6265    3.9315    0.4586 H   0  0  0  0  0  0  0  0  0  0  0  0
  5  6  2  0  0  0  0
  5  7  1  0  0  0  0
  2  3  1  0  0  0  0
  2  4  1  0  0  0  0
  2  5  1  0  0  0  0
  1  2  1  0  0  0  0
 16 17  2  0  0  0  0
 16 18  1  0  0  0  0
 14 15  1  0  0  0  0
 11 12  1  0  0  0  0
 11 13  1  0  0  0  0
 11 14  1  0  0  0  0
  9 10  1  0  0  0  0
  9 11  1  0  0  0  0
  9 16  1  0  0  0  0
  7  8  1  0  0  0  0
  7  9  1  0  0  0  0
 20 21  1  0  0  0  0
 20 22  1  0  0  0  0
 20 23  1  0  0  0  0
 18 19  1  0  0  0  0
 18 20  1  0  0  0  0
M  END
$$$$
default_name
  -OEChem-01062215323D

 23 22  0     1  0  0  0  0  0999 V2000
   -2.6721   -3.7279    0.7212 H   0  0  0  0  0  0  0  0  0  0  0  0
   -2.6561   -2.6819    0.4162 C   0  0  0  0  0  0  0  0  0  0  0  0
   -3.2401   -2.0889    1.1172 H   0  0  0  0  0  0  0  0  0  0  0  0
   -3.0671   -2.5859   -0.5858 H   0  0  0  0  0  0  0  0  0  0  0  0
   -1.2261   -2.1939    0.4202 C   0  0  0  0  0  0  0  0  0  0  0  0
   -0.3181   -2.9519    0.7312 O   0  0  0  0  0  0  0  0  0  0  0  0
   -1.0281   -0.9259    0.0662 N   0  0  0  0  0  0  0  0  0  0  0  0
   -1.8301   -0.3519   -0.1548 H   0  0  0  0  0  0  0  0  0  0  0  0
    0.2709   -0.2409    0.0912 C   0  0  1  0  0  0  0  0  0  0  0  0
    0.9610   -0.8195    0.7057 H   0  0  0  0  0  0  0  0  0  0  0  0
    0.8490   -0.1656   -1.3279 C   0  0  0  0  0  0  0  0  0  0  0  0
    1.8565    0.2512   -1.2822 H   0  0  0  0  0  0  0  0  0  0  0  0
    0.9020   -1.1691   -1.7539 H   0  0  0  0  0  0  0  0  0  0  0  0
    0.0516    0.6611   -2.1549 O   0  0  0  0  0  0  0  0  0  0  0  0
    0.5332    0.8232   -2.9732 H   0  0  0  0  0  0  0  0  0  0  0  0
    0.1327    1.1568    0.7173 C   0  0  0  0  0  0  0  0  0  0  0  0
    0.0101    1.2766    1.9369 O   0  0  0  0  0  0  0  0  0  0  0  0
    0.1637    2.2112   -0.1049 N   0  0  0  0  0  0  0  0  0  0  0  0
    0.1737    2.0110   -1.0963 H   0  0  0  0  0  0  0  0  0  0  0  0
    0.0672    3.6047    0.3252 C   0  0  0  0  0  0  0  0  0  0  0  0
    0.7177    3.7718    1.1864 H   0  0  0  0  0  0  0  0  0  0  0  0
    0.3663    4.2701   -0.4851 H   0  0  0  0  0  0  0  0  0  0  0  0
   -0.9615    3.8279    0.6160 H   0  0  0  0  0  0  0  0  0  0  0  0
  5  6  2  0  0  0  0
  5  7  1  0  0  0  0
  2  3  1  0  0  0  0
  2  4  1  0  0  0  0
  2  5  1  0  0  0  0
  1  2  1  0  0  0  0
 16 17  2  0  0  0  0
 16 18  1  0  0  0  0
 14 15  1  0  0  0  0
 11 12  1  0  0  0  0
 11 13  1  0  0  0  0
 11 14  1  0  0  0  0
  9 10  1  0  0  0  0
  9 11  1  0  0  0  0
  9 16  1  0  0  0  0
  7  8  1  0  0  0  0
  7  9  1  0  0  0  0
 20 21  1  0  0  0  0
 20 22  1  0  0  0  0
 20 23  1  0  0  0  0
 18 19  1  0  0  0  0
 18 20  1  0  0  0  0
M  END
$$$$
default_name
  -OEChem-01062215323D

 23 22  0     1  0  0  0  0  0999 V2000
   -2.6721   -3.7279    0.7212 H   0  0  0  0  0  0  0  0  0  0  0  0
   -2.6561   -2.6819    0.4162 C   0  0  0  0  0  0  0  0  0  0  0  0
   -3.2401   -2.0889    1.1172 H   0  0  0  0  0  0  0  0  0  0  0  0
   -3.0671   -2.5859   -0.5858 H   0  0  0  0  0  0  0  0  0  0  0  0
   -1.2261   -2.1939    0.4202 C   0  0  0  0  0  0  0  0  0  0  0  0
   -0.3181   -2.9519    0.7312 O   0  0  0  0  0  0  0  0  0  0  0  0
   -1.0281   -0.9259    0.0662 N   0  0  0  0  0  0  0  0  0  0  0  0
   -1.8301   -0.3519   -0.1548 H   0  0  0  0  0  0  0  0  0  0  0  0
    0.2709   -0.2409    0.0912 C   0  0  1  0  0  0  0  0  0  0  0  0
    0.9610   -0.8195    0.7057 H   0  0  0  0  0  0  0  0  0  0  0  0
    0.8490   -0.1656   -1.3279 C   0  0  0  0  0  0  0  0  0  0  0  0
    1.8565    0.2512   -1.2822 H   0  0  0  0  0  0  0  0  0  0  0  0
    0.9020   -1.1691   -1.7539 H   0  0  0  0  0  0  0  0  0  0  0  0
    0.0516    0.6611   -2.1549 O   0  0  0  0  0  0  0  0  0  0  0  0
    0.5332    0.8232   -2.9732 H   0  0  0  0  0  0  0  0  0  0  0  0
    0.1327    1.1568    0.7173 C   0  0  0  0  0  0  0  0  0  0  0  0
    0.2867    1.3070    1.9299 O   0  0  0  0  0  0  0  0  0  0  0  0
   -0.1438    2.1786   -0.1001 N   0  0  0  0  0  0  0  0  0  0  0  0
   -0.3444    1.9451   -1.0635 H   0  0  0  0  0  0  0  0  0  0  0  0
   -0.2871    3.5694    0.3258 C   0  0  0  0  0  0  0  0  0  0  0  0
    0.5248    3.8331    1.0068 H   0  0  0  0  0  0  0  0  0  0  0  0
   -0.2597    4.2325   -0.5393 H   0  0  0  0  0  0  0  0  0  0  0  0
   -1.2371    3.6962    0.8491 H   0  0  0  0  0  0  0  0  0  0  0  0
  5  6  2  0  0  0  0
  5  7  1  0  0  0  0
  2  3  1  0  0  0  0
  2  4  1  0  0  0  0
  2  5  1  0  0  0  0
  1  2  1  0  0  0  0
 16 17  2  0  0  0  0
 16 18  1  0  0  0  0
 14 15  1  0  0  0  0
 11 12  1  0  0  0  0
 11 13  1  0  0  0  0
 11 14  1  0  0  0  0
  9 10  1  0  0  0  0
  9 11  1  0  0  0  0
  9 16  1  0  0  0  0
  7  8  1  0  0  0  0
  7  9  1  0  0  0  0
 20 21  1  0  0  0  0
 20 22  1  0  0  0  0
 20 23  1  0  0  0  0
 18 19  1  0  0  0  0
 18 20  1  0  0  0  0
M  END
$$$$
default_name
  -OEChem-01062215323D

 23 22  0     1  0  0  0  0  0999 V2000
   -2.6721   -3.7279    0.7212 H   0  0  0  0  0  0  0  0  0  0  0  0
   -2.6561   -2.6819    0.4162 C   0  0  0  0  0  0  0  0  0  0  0  0
   -3.2401   -2.0889    1.1172 H   0  0  0  0  0  0  0  0  0  0  0  0
   -3.0671   -2.5859   -0.5858 H   0  0  0  0  0  0  0  0  0  0  0  0
   -1.2261   -2.1939    0.4202 C   0  0  0  0  0  0  0  0  0  0  0  0
   -0.3181   -2.9519    0.7312 O   0  0  0  0  0  0  0  0  0  0  0  0
   -1.0281   -0.9259    0.0662 N   0  0  0  0  0  0  0  0  0  0  0  0
   -1.8301   -0.3519   -0.1548 H   0  0  0  0  0  0  0  0  0  0  0  0
    0.2709   -0.2409    0.0912 C   0  0  1  0  0  0  0  0  0  0  0  0
    0.9610   -0.8195    0.7057 H   0  0  0  0  0  0  0  0  0  0  0  0
    0.8490   -0.1656   -1.3279 C   0  0  0  0  0  0  0  0  0  0  0  0
    1.8565    0.2512   -1.2822 H   0  0  0  0  0  0  0  0  0  0  0  0
    0.9020   -1.1691   -1.7539 H   0  0  0  0  0  0  0  0  0  0  0  0
    0.0516    0.6611   -2.1549 O   0  0  0  0  0  0  0  0  0  0  0  0
    0.5332    0.8232   -2.9732 H   0  0  0  0  0  0  0  0  0  0  0  0
    0.1327    1.1568    0.7173 C   0  0  0  0  0  0  0  0  0  0  0  0
    0.5490    1.3654    1.8574 O   0  0  0  0  0  0  0  0  0  0  0  0
   -0.4362    2.1149   -0.0224 N   0  0  0  0  0  0  0  0  0  0  0  0
   -0.8303    1.8277   -0.9085 H   0  0  0  0  0  0  0  0  0  0  0  0
   -0.6255    3.4980    0.4105 C   0  0  0  0  0  0  0  0  0  0  0  0
    0.2899    3.8679    0.8774 H   0  0  0  0  0  0  0  0  0  0  0  0
   -0.8732    4.1290   -0.4436 H   0  0  0  0  0  0  0  0  0  0  0  0
   -1.4346    3.5454    1.1423 H   0  0  0  0  0  0  0  0  0  0  0  0
  5  6  2  0  0  0  0
  5  7  1  0  0  0  0
  2  3  1  0  0  0  0
  2  4  1  0  0  0  0
  2  5  1  0  0  0  0
  1  2  1  0  0  0  0
 16 17  2  0  0  0  0
 16 18  1  0  0  0  0
 14 15  1  0  0  0  0
 11 12  1  0  0  0  0
 11 13  1  0  0  0  0
 11 14  1  0  0  0  0
  9 10  1  0  0  0  0
  9 11  1  0  0  0  0
  9 16  1  0  0  0  0
  7  8  1  0  0  0  0
  7  9  1  0  0  0  0
 20 21  1  0  0  0  0
 20 22  1  0  0  0  0
 20 23  1  0  0  0  0
 18 19  1  0  0  0  0
 18 20  1  0  0  0  0
M  END
$$$$
default_name
  -OEChem-01062215323D

 23 22  0     1  0  0  0  0  0999 V2000
   -2.6721   -3.7279    0.7212 H   0  0  0  0  0  0  0  0  0  0  0  0
   -2.6561   -2.6819    0.4162 C   0  0  0  0  0  0  0  0  0  0  0  0
   -3.2401   -2.0889    1.1172 H   0  0  0  0  0  0  0  0  0  0  0  0
   -3.0671   -2.5859   -0.5858 H   0  0  0  0  0  0  0  0  0  0  0  0
   -1.2261   -2.1939    0.4202 C   0  0  0  0  0  0  0  0  0  0  0  0
   -0.3181   -2.9519    0.7312 O   0  0  0  0  0  0  0  0  0  0  0  0
   -1.0281   -0.9259    0.0662 N   0  0  0  0  0  0  0  0  0  0  0  0
   -1.8301   -0.3519   -0.1548 H   0  0  0  0  0  0  0  0  0  0  0  0
    0.2709   -0.2409    0.0912 C   0  0  1  0  0  0  0  0  0  0  0  0
    0.9610   -0.8195    0.7057 H   0  0  0  0  0  0  0  0  0  0  0  0
    0.8490   -0.1656   -1.3279 C   0  0  0  0  0  0  0  0  0  0  0  0
    1.8565    0.2512   -1.2822 H   0  0  0  0  0  0  0  0  0  0  0  0
    0.9020   -1.1691   -1.7539 H   0  0  0  0  0  0  0  0  0  0  0  0
    0.0516    0.6611   -2.1549 O   0  0  0  0  0  0  0  0  0  0  0  0
    0.5332    0.8232   -2.9732 H   0  0  0  0  0  0  0  0  0  0  0  0
    0.1327    1.1568    0.7173 C   0  0  0  0  0  0  0  0  0  0  0  0
    0.7792    1.4478    1.7243 O   0  0  0  0  0  0  0  0  0  0  0  0
   -0.6937    2.0243    0.1230 N   0  0  0  0  0  0  0  0  0  0  0  0
   -1.2507    1.6666   -0.6417 H   0  0  0  0  0  0  0  0  0  0  0  0
   -0.9249    3.3953    0.5736 C   0  0  0  0  0  0  0  0  0  0  0  0
    0.0288    3.8737    0.8068 H   0  0  0  0  0  0  0  0  0  0  0  0
   -1.4323    3.9665   -0.2044 H   0  0  0  0  0  0  0  0  0  0  0  0
   -1.5405    3.3857    1.4754 H   0  0  0  0  0  0  0  0  0  0  0  0
  5  6  2  0  0  0  0
  5  7  1  0  0  0  0
  2  3  1  0  0  0  0
  2  4  1  0  0  0  0
  2  5  1  0  0  0  0
  1  2  1  0  0  0  0
 16 17  2  0  0  0  0
 16 18  1  0  0  0  0
 14 15  1  0  0  0  0
 11 12  1  0  0  0  0
 11 13  1  0  0  0  0
 11 14  1  0  0  0  0
  9 10  1  0  0  0  0
  9 11  1  0  0  0  0
  9 16  1  0  0  0  0
  7  8  1  0  0  0  0
  7  9  1  0  0  0  0
 20 21  1  0  0  0  0
 20 22  1  0  0  0  0
 20 23  1  0  0  0  0
 18 19  1  0  0  0  0
 18 20  1  0  0  0  0
M  END
$$$$
default_name
  -OEChem-01062215323D

 23 22  0     1  0  0  0  0  0999 V2000
   -2.6721   -3.7279    0.7212 H   0  0  0  0  0  0  0  0  0  0  0  0
   -2.6561   -2.6819    0.4162 C   0  0  0  0  0  0  0  0  0  0  0  0
   -3.2401   -2.0889    1.1172 H   0  0  0  0  0  0  0  0  0  0  0  0
   -3.0671   -2.5859   -0.5858 H   0  0  0  0  0  0  0  0  0  0  0  0
   -1.2261   -2.1939    0.4202 C   0  0  0  0  0  0  0  0  0  0  0  0
   -0.3181   -2.9519    0.7312 O   0  0  0  0  0  0  0  0  0  0  0  0
   -1.0281   -0.9259    0.0662 N   0  0  0  0  0  0  0  0  0  0  0  0
   -1.8301   -0.3519   -0.1548 H   0  0  0  0  0  0  0  0  0  0  0  0
    0.2709   -0.2409    0.0912 C   0  0  1  0  0  0  0  0  0  0  0  0
    0.9610   -0.8195    0.7057 H   0  0  0  0  0  0  0  0  0  0  0  0
    0.8490   -0.1656   -1.3279 C   0  0  0  0  0  0  0  0  0  0  0  0
    1.8565    0.2512   -1.2822 H   0  0  0  0  0  0  0  0  0  0  0  0
    0.9020   -1.1691   -1.7539 H   0  0  0  0  0  0  0  0  0  0  0  0
    0.0516    0.6611   -2.1549 O   0  0  0  0  0  0  0  0  0  0  0  0
    0.5332    0.8232   -2.9732 H   0  0  0  0  0  0  0  0  0  0  0  0
    0.1327    1.1568    0.7173 C   0  0  0  0  0  0  0  0  0  0  0  0
    0.9615    1.5485    1.5397 O   0  0  0  0  0  0  0  0  0  0  0  0
   -0.8987    1.9131    0.3261 N   0  0  0  0  0  0  0  0  0  0  0  0
   -1.5771    1.4729   -0.2813 H   0  0  0  0  0  0  0  0  0  0  0  0
   -1.1649    3.2684    0.8039 C   0  0  0  0  0  0  0  0  0  0  0  0
   -0.2406    3.8502    0.7998 H   0  0  0  0  0  0  0  0  0  0  0  0
   -1.8989    3.7563    0.1620 H   0  0  0  0  0  0  0  0  0  0  0  0
   -1.5476    3.2280    1.8258 H   0  0  0  0  0  0  0  0  0  0  0  0
  5  6  2  0  0  0  0
  5  7  1  0  0  0  0
  2  3  1  0  0  0  0
  2  4  1  0  0  0  0
  2  5  1  0  0  0  0
  1  2  1  0  0  0  0
 16 17  2  0  0  0  0
 16 18  1  0  0  0  0
 14 15  1  0  0  0  0
 11 12  1  0  0  0  0
 11 13  1  0  0  0  0
 11 14  1  0  0  0  0
  9 10  1  0  0  0  0
  9 11  1  0  0  0  0
  9 16  1  0  0  0  0
  7  8  1  0  0  0  0
  7  9  1  0  0  0  0
 20 21  1  0  0  0  0
 20 22  1  0  0  0  0
 20 23  1  0  0  0  0
 18 19  1  0  0  0  0
 18 20  1  0  0  0  0
M  END
$$$$
default_name
  -OEChem-01062215323D

 23 22  0     1  0  0  0  0  0999 V2000
   -2.6721   -3.7279    0.7212 H   0  0  0  0  0  0  0  0  0  0  0  0
   -2.6561   -2.6819    0.4162 C   0  0  0  0  0  0  0  0  0  0  0  0
   -3.2401   -2.0889    1.1172 H   0  0  0  0  0  0  0  0  0  0  0  0
   -3.0671   -2.5859   -0.5858 H   0  0  0  0  0  0  0  0  0  0  0  0
   -1.2261   -2.1939    0.4202 C   0  0  0  0  0  0  0  0  0  0  0  0
   -0.3181   -2.9519    0.7312 O   0  0  0  0  0  0  0  0  0  0  0  0
   -1.0281   -0.9259    0.0662 N   0  0  0  0  0  0  0  0  0  0  0  0
   -1.8301   -0.3519   -0.1548 H   0  0  0  0  0  0  0  0  0  0  0  0
    0.2709   -0.2409    0.0912 C   0  0  1  0  0  0  0  0  0  0  0  0
    0.9610   -0.8195    0.7057 H   0  0  0  0  0  0  0  0  0  0  0  0
    0.8490   -0.1656   -1.3279 C   0  0  0  0  0  0  0  0  0  0  0  0
    1.8565    0.2512   -1.2822 H   0  0  0  0  0  0  0  0  0  0  0  0
    0.9020   -1.1691   -1.7539 H   0  0  0  0  0  0  0  0  0  0  0  0
    0.0516    0.6611   -2.1549 O   0  0  0  0  0  0  0  0  0  0  0  0
    0.5332    0.8232   -2.9732 H   0  0  0  0  0  0  0  0  0  0  0  0
    0.1327    1.1568    0.7173 C   0  0  0  0  0  0  0  0  0  0  0  0
    1.0836    1.6607    1.3161 O   0  0  0  0  0  0  0  0  0  0  0  0
   -1.0371    1.7887    0.5730 N   0  0  0  0  0  0  0  0  0  0  0  0
   -1.7871    1.2598    0.1481 H   0  0  0  0  0  0  0  0  0  0  0  0
   -1.3291    3.1259    1.0859 C   0  0  0  0  0  0  0  0  0  0  0  0
   -0.5000    3.7989    0.8571 H   0  0  0  0  0  0  0  0  0  0  0  0
   -2.2414    3.5125    0.6306 H   0  0  0  0  0  0  0  0  0  0  0  0
   -1.4554    3.0831    2.1696 H   0  0  0  0  0  0  0  0  0  0  0  0
  5  6  2  0  0  0  0
  5  7  1  0  0  0  0
  2  3  1  0  0  0  0
  2  4  1  0  0  0  0
  2  5  1  0  0  0  0
  1  2  1  0  0  0  0
 16 17  2  0  0  0  0
 16 18  1  0  0  0  0
 14 15  1  0  0  0  0
 11 12  1  0  0  0  0
 11 13  1  0  0  0  0
 11 14  1  0  0  0  0
  9 10  1  0  0  0  0
  9 11  1  0  0  0  0
  9 16  1  0  0  0  0
  7  8  1  0  0  0  0
  7  9  1  0  0  0  0
 20 21  1  0  0  0  0
 20 22  1  0  0  0  0
 20 23  1  0  0  0  0
 18 19  1  0  0  0  0
 18 20  1  0  0  0  0
M  END
$$$$
default_name
  -OEChem-01062215323D

 23 22  0     1  0  0  0  0  0999 V2000
   -2.6721   -3.7279    0.7212 H   0  0  0  0  0  0  0  0  0  0  0  0
   -2.6561   -2.6819    0.4162 C   0  0  0  0  0  0  0  0  0  0  0  0
   -3.2401   -2.0889    1.1172 H   0  0  0  0  0  0  0  0  0  0  0  0
   -3.0671   -2.5859   -0.5858 H   0  0  0  0  0  0  0  0  0  0  0  0
   -1.2261   -2.1939    0.4202 C   0  0  0  0  0  0  0  0  0  0  0  0
   -0.3181   -2.9519    0.7312 O   0  0  0  0  0  0  0  0  0  0  0  0
   -1.0281   -0.9259    0.0662 N   0  0  0  0  0  0  0  0  0  0  0  0
   -1.8301   -0.3519   -0.1548 H   0  0  0  0  0  0  0  0  0  0  0  0
    0.2709   -0.2409    0.0912 C   0  0  1  0  0  0  0  0  0  0  0  0
    0.9610   -0.8195    0.7057 H   0  0  0  0  0  0  0  0  0  0  0  0
    0.8490   -0.1656   -1.3279 C   0  0  0  0  0  0  0  0  0  0  0  0
    1.8565    0.2512   -1.2822 H   0  0  0  0  0  0  0  0  0  0  0  0
    0.9020   -1.1691   -1.7539 H   0  0  0  0  0  0  0  0  0  0  0  0
    0.0516    0.6611   -2.1549 O   0  0  0  0  0  0  0  0  0  0  0  0
    0.5332    0.8232   -2.9732 H   0  0  0  0  0  0  0  0  0  0  0  0
    0.1327    1.1568    0.7173 C   0  0  0  0  0  0  0  0  0  0  0  0
    1.1371    1.7768    1.0689 O   0  0  0  0  0  0  0  0  0  0  0  0
   -1.0997    1.6598    0.8471 N   0  0  0  0  0  0  0  0  0  0  0  0
   -1.8666    1.0418    0.6172 H   0  0  0  0  0  0  0  0  0  0  0  0
   -1.4064    2.9775    1.4001 C   0  0  0  0  0  0  0  0  0  0  0  0
   -0.7316    3.7233    0.9746 H   0  0  0  0  0  0  0  0  0  0  0  0
   -2.4362    3.2519    1.1694 H   0  0  0  0  0  0  0  0  0  0  0  0
   -1.2702    2.9609    2.4834 H   0  0  0  0  0  0  0  0  0  0  0  0
  5  6  2  0  0  0  0
  5  7  1  0  0  0  0
  2  3  1  0  0  0  0
  2  4  1  0  0  0  0
  2  5  1  0  0  0  0
  1  2  1  0  0  0  0
 16 17  2  0  0  0  0
 16 18  1  0  0  0  0
 14 15  1  0  0  0  0
 11 12  1  0  0  0  0
 11 13  1  0  0  0  0
 11 14  1  0  0  0  0
  9 10  1  0  0  0  0
  9 11  1  0  0  0  0
  9 16  1  0  0  0  0
  7  8  1  0  0  0  0
  7  9  1  0  0  0  0
 20 21  1  0  0  0  0
 20 22  1  0  0  0  0
 20 23  1  0  0  0  0
 18 19  1  0  0  0  0
 18 20  1  0  0  0  0
M  END
$$$$
default_name
  -OEChem-01062215323D

 23 22  0     1  0  0  0  0  0999 V2000
   -2.6721   -3.7279    0.7212 H   0  0  0  0  0  0  0  0  0  0  0  0
   -2.6561   -2.6819    0.4162 C   0  0  0  0  0  0  0  0  0  0  0  0
   -3.2401   -2.0889    1.1172 H   0  0  0  0  0  0  0  0  0  0  0  0
   -3.0671   -2.5859   -0.5858 H   0  0  0  0  0  0  0  0  0  0  0  0
   -1.2261   -2.1939    0.4202 C   0  0  0  0  0  0  0  0  0  0  0  0
   -0.3181   -2.9519    0.7312 O   0  0  0  0  0  0  0  0  0  0  0  0
   -1.0281   -0.9259    0.0662 N   0  0  0  0  0  0  0  0  0  0  0  0
   -1.8301   -0.3519   -0.1548 H   0  0  0  0  0  0  0  0  0  0  0  0
    0.2709   -0.2409    0.0912 C   0  0  1  0  0  0  0  0  0  0  0  0
    0.9610   -0.8195    0.7057 H   0  0  0  0  0  0  0  0  0  0  0  0
    0.8490   -0.1656   -1.3279 C   0  0  0  0  0  0  0  0  0  0  0  0
    1.8565    0.2512   -1.2822 H   0  0  0  0  0  0  0  0  0  0  0  0
    0.9020   -1.1691   -1.7539 H   0  0  0  0  0  0  0  0  0  0  0  0
    0.0516    0.6611   -2.1549 O   0  0  0  0  0  0  0  0  0  0  0  0
    0.5332    0.8232   -2.9732 H   0  0  0  0  0  0  0  0  0  0  0  0
    0.1327    1.1568    0.7173 C   0  0  0  0  0  0  0  0  0  0  0  0
    1.1183    1.8888    0.8147 O   0  0  0  0  0  0  0  0  0  0  0  0
   -1.0821    1.5351    1.1295 N   0  0  0  0  0  0  0  0  0  0  0  0
   -1.8100    0.8338    1.0941 H   0  0  0  0  0  0  0  0  0  0  0  0
   -1.3915    2.8333    1.7253 C   0  0  0  0  0  0  0  0  0  0  0  0
   -0.9198    3.6287    1.1444 H   0  0  0  0  0  0  0  0  0  0  0  0
   -2.4702    2.9921    1.7418 H   0  0  0  0  0  0  0  0  0  0  0  0
   -1.0047    2.8696    2.7458 H   0  0  0  0  0  0  0  0  0  0  0  0
  5  6  2  0  0  0  0
  5  7  1  0  0  0  0
  2  3  1  0  0  0  0
  2  4  1  0  0  0  0
  2  5  1  0  0  0  0
  1  2  1  0  0  0  0
 16 17  2  0  0  0  0
 16 18  1  0  0  0  0
 14 15  1  0  0  0  0
 11 12  1  0  0  0  0
 11 13  1  0  0  0  0
 11 14  1  0  0  0  0
  9 10  1  0  0  0  0
  9 11  1  0  0  0  0
  9 16  1  0  0  0  0
  7  8  1  0  0  0  0
  7  9  1  0  0  0  0
 20 21  1  0  0  0  0
 20 22  1  0  0  0  0
 20 23  1  0  0  0  0
 18 19  1  0  0  0  0
 18 20  1  0  0  0  0
M  END
$$$$
default_name
  -OEChem-01062215323D

 23 22  0     1  0  0  0  0  0999 V2000
   -2.6721   -3.7279    0.7212 H   0  0  0  0  0  0  0  0  0  0  0  0
   -2.6561   -2.6819    0.4162 C   0  0  0  0  0  0  0  0  0  0  0  0
   -3.2401   -2.0889    1.1172 H   0  0  0  0  0  0  0  0  0  0  0  0
   -3.0671   -2.5859   -0.5858 H   0  0  0  0  0  0  0  0  0  0  0  0
   -1.2261   -2.1939    0.4202 C   0  0  0  0  0  0  0  0  0  0  0  0
   -0.3181   -2.9519    0.7312 O   0  0  0  0  0  0  0  0  0  0  0  0
   -1.0281   -0.9259    0.0662 N   0  0  0  0  0  0  0  0  0  0  0  0
   -1.8301   -0.3519   -0.1548 H   0  0  0  0  0  0  0  0  0  0  0  0
    0.2709   -0.2409    0.0912 C   0  0  1  0  0  0  0  0  0  0  0  0
    0.9610   -0.8195    0.7057 H   0  0  0  0  0  0  0  0  0  0  0  0
    0.8490   -0.1656   -1.3279 C   0  0  0  0  0  0  0  0  0  0  0  0
    1.8565    0.2512   -1.2822 H   0  0  0  0  0  0  0  0  0  0  0  0
    0.9020   -1.1691   -1.7539 H   0  0  0  0  0  0  0  0  0  0  0  0
    0.0516    0.6611   -2.1549 O   0  0  0  0  0  0  0  0  0  0  0  0
    0.5332    0.8232   -2.9732 H   0  0  0  0  0  0  0  0  0  0  0  0
    0.1327    1.1568    0.7173 C   0  0  0  0  0  0  0  0  0  0  0  0
    1.0287    1.9891    0.5711 O   0  0  0  0  0  0  0  0  0  0  0  0
   -0.9855    1.4230    1.4010 N   0  0  0  0  0  0  0  0  0  0  0  0
   -1.6212    0.6499    1.5462 H   0  0  0  0  0  0  0  0  0  0  0  0
   -1.2855    2.7032    2.0393 C   0  0  0  0  0  0  0  0  0  0  0  0
   -1.0517    3.5214    1.3548 H   0  0  0  0  0  0  0  0  0  0  0  0
   -2.3410    2.7510    2.3086 H   0  0  0  0  0  0  0  0  0  0  0  0
   -0.6768    2.8155    2.9389 H   0  0  0  0  0  0  0  0  0  0  0  0
  5  6  2  0  0  0  0
  5  7  1  0  0  0  0
  2  3  1  0  0  0  0
  2  4  1  0  0  0  0
  2  5  1  0  0  0  0
  1  2  1  0  0  0  0
 16 17  2  0  0  0  0
 16 18  1  0  0  0  0
 14 15  1  0  0  0  0
 11 12  1  0  0  0  0
 11 13  1  0  0  0  0
 11 14  1  0  0  0  0
  9 10  1  0  0  0  0
  9 11  1  0  0  0  0
  9 16  1  0  0  0  0
  7  8  1  0  0  0  0
  7  9  1  0  0  0  0
 20 21  1  0  0  0  0
 20 22  1  0  0  0  0
 20 23  1  0  0  0  0
 18 19  1  0  0  0  0
 18 20  1  0  0  0  0
M  END
$$$$
default_name
  -OEChem-01062215323D

 23 22  0     1  0  0  0  0  0999 V2000
   -2.6721   -3.7279    0.7212 H   0  0  0  0  0  0  0  0  0  0  0  0
   -2.6561   -2.6819    0.4162 C   0  0  0  0  0  0  0  0  0  0  0  0
   -3.2401   -2.0889    1.1172 H   0  0  0  0  0  0  0  0  0  0  0  0
   -3.0671   -2.5859   -0.5858 H   0  0  0  0  0  0  0  0  0  0  0  0
   -1.2261   -2.1939    0.4202 C   0  0  0  0  0  0  0  0  0  0  0  0
   -0.3181   -2.9519    0.7312 O   0  0  0  0  0  0  0  0  0  0  0  0
   -1.0281   -0.9259    0.0662 N   0  0  0  0  0  0  0  0  0  0  0  0
   -1.8301   -0.3519   -0.1548 H   0  0  0  0  0  0  0  0  0  0  0  0
    0.2709   -0.2409    0.0912 C   0  0  1  0  0  0  0  0  0  0  0  0
    0.9610   -0.8195    0.7057 H   0  0  0  0  0  0  0  0  0  0  0  0
    0.8490   -0.1656   -1.3279 C   0  0  0  0  0  0  0  0  0  0  0  0
    1.8565    0.2512   -1.2822 H   0  0  0  0  0  0  0  0  0  0  0  0
    0.9020   -1.1691   -1.7539 H   0  0  0  0  0  0  0  0  0  0  0  0
    0.0516    0.6611   -2.1549 O   0  0  0  0  0  0  0  0  0  0  0  0
    0.5332    0.8232   -2.9732 H   0  0  0  0  0  0  0  0  0  0  0  0
    0.1327    1.1568    0.7173 C   0  0  0  0  0  0  0  0  0  0  0  0
    0.8742    2.0708    0.3545 O   0  0  0  0  0  0  0  0  0  0  0  0
   -0.8165    1.3312    1.6432 N   0  0  0  0  0  0  0  0  0  0  0  0
   -1.3131    0.5027    1.9428 H   0  0  0  0  0  0  0  0  0  0  0  0
   -1.0954    2.5959    2.3206 C   0  0  0  0  0  0  0  0  0  0  0  0
   -1.1182    3.4087    1.5916 H   0  0  0  0  0  0  0  0  0  0  0  0
   -2.0574    2.5448    2.8314 H   0  0  0  0  0  0  0  0  0  0  0  0
   -0.3090    2.8024    3.0495 H   0  0  0  0  0  0  0  0  0  0  0  0
  5  6  2  0  0  0  0
  5  7  1  0  0  0  0
  2  3  1  0  0  0  0
  2  4  1  0  0  0  0
  2  5  1  0  0  0  0
  1  2  1  0  0  0  0
 16 17  2  0  0  0  0
 16 18  1  0  0  0  0
 14 15  1  0  0  0  0
 11 12  1  0  0  0  0
 11 13  1  0  0  0  0
 11 14  1  0  0  0  0
  9 10  1  0  0  0  0
  9 11  1  0  0  0  0
  9 16  1  0  0  0  0
  7  8  1  0  0  0  0
  7  9  1  0  0  0  0
 20 21  1  0  0  0  0
 20 22  1  0  0  0  0
 20 23  1  0  0  0  0
 18 19  1  0  0  0  0
 18 20  1  0  0  0  0
M  END
$$$$
default_name
  -OEChem-01062215323D

 23 22  0     1  0  0  0  0  0999 V2000
   -2.6721   -3.7279    0.7212 H   0  0  0  0  0  0  0  0  0  0  0  0
   -2.6561   -2.6819    0.4162 C   0  0  0  0  0  0  0  0  0  0  0  0
   -3.2401   -2.0889    1.1172 H   0  0  0  0  0  0  0  0  0  0  0  0
   -3.0671   -2.5859   -0.5858 H   0  0  0  0  0  0  0  0  0  0  0  0
   -1.2261   -2.1939    0.4202 C   0  0  0  0  0  0  0  0  0  0  0  0
   -0.3181   -2.9519    0.7312 O   0  0  0  0  0  0  0  0  0  0  0  0
   -1.0281   -0.9259    0.0662 N   0  0  0  0  0  0  0  0  0  0  0  0
   -1.8301   -0.3519   -0.1548 H   0  0  0  0  0  0  0  0  0  0  0  0
    0.2709   -0.2409    0.0912 C   0  0  1  0  0  0  0  0  0  0  0  0
    0.9610   -0.8195    0.7057 H   0  0  0  0  0  0  0  0  0  0  0  0
    0.8490   -0.1656   -1.3279 C   0  0  0  0  0  0  0  0  0  0  0  0
    1.8565    0.2512   -1.2822 H   0  0  0  0  0  0  0  0  0  0  0  0
    0.9020   -1.1691   -1.7539 H   0  0  0  0  0  0  0  0  0  0  0  0
    0.0516    0.6611   -2.1549 O   0  0  0  0  0  0  0  0  0  0  0  0
    0.5332    0.8232   -2.9732 H   0  0  0  0  0  0  0  0  0  0  0  0
    0.1327    1.1568    0.7173 C   0  0  0  0  0  0  0  0  0  0  0  0
    0.6653    2.1285    0.1797 O   0  0  0  0  0  0  0  0  0  0  0  0
   -0.5866    1.2660    1.8395 N   0  0  0  0  0  0  0  0  0  0  0  0
   -0.9067    0.4022    2.2569 H   0  0  0  0  0  0  0  0  0  0  0  0
   -0.8344    2.5189    2.5501 C   0  0  0  0  0  0  0  0  0  0  0  0
   -1.1149    3.2984    1.8386 H   0  0  0  0  0  0  0  0  0  0  0  0
   -1.6388    2.3878    3.2745 H   0  0  0  0  0  0  0  0  0  0  0  0
    0.0737    2.8310    3.0701 H   0  0  0  0  0  0  0  0  0  0  0  0
  5  6  2  0  0  0  0
  5  7  1  0  0  0  0
  2  3  1  0  0  0  0
  2  4  1  0  0  0  0
  2  5  1  0  0  0  0
  1  2  1  0  0  0  0
 16 17  2  0  0  0  0
 16 18  1  0  0  0  0
 14 15  1  0  0  0  0
 11 12  1  0  0  0  0
 11 13  1  0  0  0  0
 11 14  1  0  0  0  0
  9 10  1  0  0  0  0
  9 11  1  0  0  0  0
  9 16  1  0  0  0  0
  7  8  1  0  0  0  0
  7  9  1  0  0  0  0
 20 21  1  0  0  0  0
 20 22  1  0  0  0  0
 20 23  1  0  0  0  0
 18 19  1  0  0  0  0
 18 20  1  0  0  0  0
M  END
$$$$
default_name
  -OEChem-01062215323D

 23 22  0     1  0  0  0  0  0999 V2000
   -2.6721   -3.7279    0.7212 H   0  0  0  0  0  0  0  0  0  0  0  0
   -2.6561   -2.6819    0.4162 C   0  0  0  0  0  0  0  0  0  0  0  0
   -3.2401   -2.0889    1.1172 H   0  0  0  0  0  0  0  0  0  0  0  0
   -3.0671   -2.5859   -0.5858 H   0  0  0  0  0  0  0  0  0  0  0  0
   -1.2261   -2.1939    0.4202 C   0  0  0  0  0  0  0  0  0  0  0  0
   -0.3181   -2.9519    0.7312 O   0  0  0  0  0  0  0  0  0  0  0  0
   -1.0281   -0.9259    0.0662 N   0  0  0  0  0  0  0  0  0  0  0  0
   -1.8301   -0.3519   -0.1548 H   0  0  0  0  0  0  0  0  0  0  0  0
    0.2709   -0.2409    0.0912 C   0  0  1  0  0  0  0  0  0  0  0  0
    0.9610   -0.8195    0.7057 H   0  0  0  0  0  0  0  0  0  0  0  0
    0.8490   -0.1656   -1.3279 C   0  0  0  0  0  0  0  0  0  0  0  0
    1.8565    0.2512   -1.2822 H   0  0  0  0  0  0  0  0  0  0  0  0
    0.9020   -1.1691   -1.7539 H   0  0  0  0  0  0  0  0  0  0  0  0
    0.0516    0.6611   -2.1549 O   0  0  0  0  0  0  0  0  0  0  0  0
    0.5332    0.8232   -2.9732 H   0  0  0  0  0  0  0  0  0  0  0  0
    0.1327    1.1568    0.7173 C   0  0  0  0  0  0  0  0  0  0  0  0
    0.4165    2.1581    0.0586 O   0  0  0  0  0  0  0  0  0  0  0  0
   -0.3115    1.2318    1.9765 N   0  0  0  0  0  0  0  0  0  0  0  0
   -0.4297    0.3553    2.4670 H   0  0  0  0  0  0  0  0  0  0  0  0
   -0.5201    2.4774    2.7122 C   0  0  0  0  0  0  0  0  0  0  0  0
   -1.0420    3.1980    2.0789 H   0  0  0  0  0  0  0  0  0  0  0  0
   -1.1137    2.2905    3.6076 H   0  0  0  0  0  0  0  0  0  0  0  0
    0.4452    2.8994    2.9994 H   0  0  0  0  0  0  0  0  0  0  0  0
  5  6  2  0  0  0  0
  5  7  1  0  0  0  0
  2  3  1  0  0  0  0
  2  4  1  0  0  0  0
  2  5  1  0  0  0  0
  1  2  1  0  0  0  0
 16 17  2  0  0  0  0
 16 18  1  0  0  0  0
 14 15  1  0  0  0  0
 11 12  1  0  0  0  0
 11 13  1  0  0  0  0
 11 14  1  0  0  0  0
  9 10  1  0  0  0  0
  9 11  1  0  0  0  0
  9 16  1  0  0  0  0
  7  8  1  0  0  0  0
  7  9  1  0  0  0  0
 20 21  1  0  0  0  0
 20 22  1  0  0  0  0
 20 23  1  0  0  0  0
 18 19  1  0  0  0  0
 18 20  1  0  0  0  0
M  END
$$$$
default_name
  -OEChem-01062215323D

 23 22  0     1  0  0  0  0  0999 V2000
   -2.6721   -3.7279    0.7212 H   0  0  0  0  0  0  0  0  0  0  0  0
   -2.6561   -2.6819    0.4162 C   0  0  0  0  0  0  0  0  0  0  0  0
   -3.2401   -2.0889    1.1172 H   0  0  0  0  0  0  0  0  0  0  0  0
   -3.0671   -2.5859   -0.5858 H   0  0  0  0  0  0  0  0  0  0  0  0
   -1.2261   -2.1939    0.4202 C   0  0  0  0  0  0  0  0  0  0  0  0
   -0.3181   -2.9519    0.7312 O   0  0  0  0  0  0  0  0  0  0  0  0
   -1.0281   -0.9259    0.0662 N   0  0  0  0  0  0  0  0  0  0  0  0
   -1.8301   -0.3519   -0.1548 H   0  0  0  0  0  0  0  0  0  0  0  0
    0.2709   -0.2409    0.0912 C   0  0  1  0  0  0  0  0  0  0  0  0
    0.9610   -0.8195    0.7057 H   0  0  0  0  0  0  0  0  0  0  0  0
    0.8490   -0.1656   -1.3279 C   0  0  0  0  0  0  0  0  0  0  0  0
    1.8565    0.2512   -1.2822 H   0  0  0  0  0  0  0  0  0  0  0  0
    0.9020   -1.1691   -1.7539 H   0  0  0  0  0  0  0  0  0  0  0  0
    0.0516    0.6611   -2.1549 O   0  0  0  0  0  0  0  0  0  0  0  0
    0.5332    0.8232   -2.9732 H   0  0  0  0  0  0  0  0  0  0  0  0
    0.1327    1.1568    0.7173 C   0  0  0  0  0  0  0  0  0  0  0  0
    0.1444    2.1576   -0.0004 O   0  0  0  0  0  0  0  0  0  0  0  0
   -0.0099    1.2310    2.0450 N   0  0  0  0  0  0  0  0  0  0  0  0
    0.0855    0.3651    2.5588 H   0  0  0  0  0  0  0  0  0  0  0  0
   -0.1741    2.4741    2.7959 C   0  0  0  0  0  0  0  0  0  0  0  0
   -0.9044    3.1142    2.2963 H   0  0  0  0  0  0  0  0  0  0  0  0
   -0.5178    2.2596    3.8082 H   0  0  0  0  0  0  0  0  0  0  0  0
    0.7802    3.0030    2.8420 H   0  0  0  0  0  0  0  0  0  0  0  0
  5  6  2  0  0  0  0
  5  7  1  0  0  0  0
  2  3  1  0  0  0  0
  2  4  1  0  0  0  0
  2  5  1  0  0  0  0
  1  2  1  0  0  0  0
 16 17  2  0  0  0  0
 16 18  1  0  0  0  0
 14 15  1  0  0  0  0
 11 12  1  0  0  0  0
 11 13  1  0  0  0  0
 11 14  1  0  0  0  0
  9 10  1  0  0  0  0
  9 11  1  0  0  0  0
  9 16  1  0  0  0  0
  7  8  1  0  0  0  0
  7  9  1  0  0  0  0
 20 21  1  0  0  0  0
 20 22  1  0  0  0  0
 20 23  1  0  0  0  0
 18 19  1  0  0  0  0
 18 20  1  0  0  0  0
M  END
$$$$
default_name
  -OEChem-01062215323D

 23 22  0     1  0  0  0  0  0999 V2000
   -2.6721   -3.7279    0.7212 H   0  0  0  0  0  0  0  0  0  0  0  0
   -2.6561   -2.6819    0.4162 C   0  0  0  0  0  0  0  0  0  0  0  0
   -3.2401   -2.0889    1.1172 H   0  0  0  0  0  0  0  0  0  0  0  0
   -3.0671   -2.5859   -0.5858 H   0  0  0  0  0  0  0  0  0  0  0  0
   -1.2261   -2.1939    0.4202 C   0  0  0  0  0  0  0  0  0  0  0  0
   -0.3181   -2.9519    0.7312 O   0  0  0  0  0  0  0  0  0  0  0  0
   -1.0281   -0.9259    0.0662 N   0  0  0  0  0  0  0  0  0  0  0  0
   -1.8301   -0.3519   -0.1548 H   0  0  0  0  0  0  0  0  0  0  0  0
    0.2709   -0.2409    0.0912 C   0  0  1  0  0  0  0  0  0  0  0  0
    0.9610   -0.8195    0.7057 H   0  0  0  0  0  0  0  0  0  0  0  0
    0.8490   -0.1656   -1.3279 C   0  0  0  0  0  0  0  0  0  0  0  0
    1.8565    0.2512   -1.2822 H   0  0  0  0  0  0  0  0  0  0  0  0
    0.9020   -1.1691   -1.7539 H   0  0  0  0  0  0  0  0  0  0  0  0
    0.0516    0.6611   -2.1549 O   0  0  0  0  0  0  0  0  0  0  0  0
    0.5332    0.8232   -2.9732 H   0  0  0  0  0  0  0  0  0  0  0  0
    0.1327    1.1568    0.7173 C   0  0  0  0  0  0  0  0  0  0  0  0
   -0.1321    2.1272    0.0066 O   0  0  0  0  0  0  0  0  0  0  0  0
    0.2976    1.2635    2.0401 N   0  0  0  0  0  0  0  0  0  0  0  0
    0.6036    0.4310    2.5260 H   0  0  0  0  0  0  0  0  0  0  0  0
    0.1802    2.5094    2.7953 C   0  0  0  0  0  0  0  0  0  0  0  0
   -0.7116    3.0529    2.4758 H   0  0  0  0  0  0  0  0  0  0  0  0
    0.1082    2.2972    3.8624 H   0  0  0  0  0  0  0  0  0  0  0  0
    1.0558    3.1347    2.6088 H   0  0  0  0  0  0  0  0  0  0  0  0
  5  6  2  0  0  0  0
  5  7  1  0  0  0  0
  2  3  1  0  0  0  0
  2  4  1  0  0  0  0
  2  5  1  0  0  0  0
  1  2  1  0  0  0  0
 16 17  2  0  0  0  0
 16 18  1  0  0  0  0
 14 15  1  0  0  0  0
 11 12  1  0  0  0  0
 11 13  1  0  0  0  0
 11 14  1  0  0  0  0
  9 10  1  0  0  0  0
  9 11  1  0  0  0  0
  9 16  1  0  0  0  0
  7  8  1  0  0  0  0
  7  9  1  0  0  0  0
 20 21  1  0  0  0  0
 20 22  1  0  0  0  0
 20 23  1  0  0  0  0
 18 19  1  0  0  0  0
 18 20  1  0  0  0  0
M  END
$$$$
default_name
  -OEChem-01062215323D

 23 22  0     1  0  0  0  0  0999 V2000
   -2.6721   -3.7279    0.7212 H   0  0  0  0  0  0  0  0  0  0  0  0
   -2.6561   -2.6819    0.4162 C   0  0  0  0  0  0  0  0  0  0  0  0
   -3.2401   -2.0889    1.1172 H   0  0  0  0  0  0  0  0  0  0  0  0
   -3.0671   -2.5859   -0.5858 H   0  0  0  0  0  0  0  0  0  0  0  0
   -1.2261   -2.1939    0.4202 C   0  0  0  0  0  0  0  0  0  0  0  0
   -0.3181   -2.9519    0.7312 O   0  0  0  0  0  0  0  0  0  0  0  0
   -1.0281   -0.9259    0.0662 N   0  0  0  0  0  0  0  0  0  0  0  0
   -1.8301   -0.3519   -0.1548 H   0  0  0  0  0  0  0  0  0  0  0  0
    0.2709   -0.2409    0.0912 C   0  0  1  0  0  0  0  0  0  0  0  0
    0.9610   -0.8195    0.7057 H   0  0  0  0  0  0  0  0  0  0  0  0
    0.8490   -0.1656   -1.3279 C   0  0  0  0  0  0  0  0  0  0  0  0
    1.8565    0.2512   -1.2822 H   0  0  0  0  0  0  0  0  0  0  0  0
    0.9020   -1.1691   -1.7539 H   0  0  0  0  0  0  0  0  0  0  0  0
    0.0516    0.6611   -2.1549 O   0  0  0  0  0  0  0  0  0  0  0  0
    0.5332    0.8232   -2.9732 H   0  0  0  0  0  0  0  0  0  0  0  0
    0.1327    1.1568    0.7173 C   0  0  0  0  0  0  0  0  0  0  0  0
   -0.3944    2.0688    0.0790 O   0  0  0  0  0  0  0  0  0  0  0  0
    0.5900    1.3273    1.9624 N   0  0  0  0  0  0  0  0  0  0  0  0
    1.0894    0.5485    2.3710 H   0  0  0  0  0  0  0  0  0  0  0  0
    0.5186    2.5808    2.7106 C   0  0  0  0  0  0  0  0  0  0  0  0
   -0.4766    3.0181    2.6053 H   0  0  0  0  0  0  0  0  0  0  0  0
    0.7217    2.4007    3.7666 H   0  0  0  0  0  0  0  0  0  0  0  0
    1.2533    3.2855    2.3157 H   0  0  0  0  0  0  0  0  0  0  0  0
  5  6  2  0  0  0  0
  5  7  1  0  0  0  0
  2  3  1  0  0  0  0
  2  4  1  0  0  0  0
  2  5  1  0  0  0  0
  1  2  1  0  0  0  0
 16 17  2  0  0  0  0
 16 18  1  0  0  0  0
 14 15  1  0  0  0  0
 11 12  1  0  0  0  0
 11 13  1  0  0  0  0
 11 14  1  0  0  0  0
  9 10  1  0  0  0  0
  9 11  1  0  0  0  0
  9 16  1  0  0  0  0
  7  8  1  0  0  0  0
  7  9  1  0  0  0  0
 20 21  1  0  0  0  0
 20 22  1  0  0  0  0
 20 23  1  0  0  0  0
 18 19  1  0  0  0  0
 18 20  1  0  0  0  0
M  END
$$$$
default_name
  -OEChem-01062215323D

 23 22  0     1  0  0  0  0  0999 V2000
   -2.6721   -3.7279    0.7212 H   0  0  0  0  0  0  0  0  0  0  0  0
   -2.6561   -2.6819    0.4162 C   0  0  0  0  0  0  0  0  0  0  0  0
   -3.2401   -2.0889    1.1172 H   0  0  0  0  0  0  0  0  0  0  0  0
   -3.0671   -2.5859   -0.5858 H   0  0  0  0  0  0  0  0  0  0  0  0
   -1.2261   -2.1939    0.4202 C   0  0  0  0  0  0  0  0  0  0  0  0
   -0.3181   -2.9519    0.7312 O   0  0  0  0  0  0  0  0  0  0  0  0
   -1.0281   -0.9259    0.0662 N   0  0  0  0  0  0  0  0  0  0  0  0
   -1.8301   -0.3519   -0.1548 H   0  0  0  0  0  0  0  0  0  0  0  0
    0.2709   -0.2409    0.0912 C   0  0  1  0  0  0  0  0  0  0  0  0
    0.9610   -0.8195    0.7057 H   0  0  0  0  0  0  0  0  0  0  0  0
    0.8490   -0.1656   -1.3279 C   0  0  0  0  0  0  0  0  0  0  0  0
    1.8565    0.2512   -1.2822 H   0  0  0  0  0  0  0  0  0  0  0  0
    0.9020   -1.1691   -1.7539 H   0  0  0  0  0  0  0  0  0  0  0  0
    0.0516    0.6611   -2.1549 O   0  0  0  0  0  0  0  0  0  0  0  0
    0.5332    0.8232   -2.9732 H   0  0  0  0  0  0  0  0  0  0  0  0
    0.1327    1.1568    0.7173 C   0  0  0  0  0  0  0  0  0  0  0  0
   -0.6246    1.9864    0.2121 O   0  0  0  0  0  0  0  0  0  0  0  0
    0.8475    1.4178    1.8170 N   0  0  0  0  0  0  0  0  0  0  0  0
    1.5099    0.7096    2.1042 H   0  0  0  0  0  0  0  0  0  0  0  0
    0.8179    2.6835    2.5475 C   0  0  0  0  0  0  0  0  0  0  0  0
   -0.2155    3.0123    2.6759 H   0  0  0  0  0  0  0  0  0  0  0  0
    1.2808    2.5631    3.5274 H   0  0  0  0  0  0  0  0  0  0  0  0
    1.3592    3.4452    1.9825 H   0  0  0  0  0  0  0  0  0  0  0  0
  5  6  2  0  0  0  0
  5  7  1  0  0  0  0
  2  3  1  0  0  0  0
  2  4  1  0  0  0  0
  2  5  1  0  0  0  0
  1  2  1  0  0  0  0
 16 17  2  0  0  0  0
 16 18  1  0  0  0  0
 14 15  1  0  0  0  0
 11 12  1  0  0  0  0
 11 13  1  0  0  0  0
 11 14  1  0  0  0  0
  9 10  1  0  0  0  0
  9 11  1  0  0  0  0
  9 16  1  0  0  0  0
  7  8  1  0  0  0  0
  7  9  1  0  0  0  0
 20 21  1  0  0  0  0
 20 22  1  0  0  0  0
 20 23  1  0  0  0  0
 18 19  1  0  0  0  0
 18 20  1  0  0  0  0
M  END
$$$$
default_name
  -OEChem-01062215323D

 23 22  0     1  0  0  0  0  0999 V2000
   -2.6721   -3.7279    0.7212 H   0  0  0  0  0  0  0  0  0  0  0  0
   -2.6561   -2.6819    0.4162 C   0  0  0  0  0  0  0  0  0  0  0  0
   -3.2401   -2.0889    1.1172 H   0  0  0  0  0  0  0  0  0  0  0  0
   -3.0671   -2.5859   -0.5858 H   0  0  0  0  0  0  0  0  0  0  0  0
   -1.2261   -2.1939    0.4202 C   0  0  0  0  0  0  0  0  0  0  0  0
   -0.3181   -2.9519    0.7312 O   0  0  0  0  0  0  0  0  0  0  0  0
   -1.0281   -0.9259    0.0662 N   0  0  0  0  0  0  0  0  0  0  0  0
   -1.8301   -0.3519   -0.1548 H   0  0  0  0  0  0  0  0  0  0  0  0
    0.2709   -0.2409    0.0912 C   0  0  1  0  0  0  0  0  0  0  0  0
    0.9610   -0.8195    0.7057 H   0  0  0  0  0  0  0  0  0  0  0  0
    0.8490   -0.1656   -1.3279 C   0  0  0  0  0  0  0  0  0  0  0  0
    1.8565    0.2512   -1.2822 H   0  0  0  0  0  0  0  0  0  0  0  0
    0.9020   -1.1691   -1.7539 H   0  0  0  0  0  0  0  0  0  0  0  0
    0.0516    0.6611   -2.1549 O   0  0  0  0  0  0  0  0  0  0  0  0
    0.5332    0.8232   -2.9732 H   0  0  0  0  0  0  0  0  0  0  0  0
    0.1327    1.1568    0.7173 C   0  0  0  0  0  0  0  0  0  0  0  0
   -0.8069    1.8857    0.3967 O   0  0  0  0  0  0  0  0  0  0  0  0
    1.0524    1.5291    1.6140 N   0  0  0  0  0  0  0  0  0  0  0  0
    1.8362    0.9033    1.7438 H   0  0  0  0  0  0  0  0  0  0  0  0
    1.0579    2.8104    2.3171 C   0  0  0  0  0  0  0  0  0  0  0  0
    0.0539    3.0358    2.6828 H   0  0  0  0  0  0  0  0  0  0  0  0
    1.7474    2.7734    3.1610 H   0  0  0  0  0  0  0  0  0  0  0  0
    1.3663    3.6029    1.6321 H   0  0  0  0  0  0  0  0  0  0  0  0
  5  6  2  0  0  0  0
  5  7  1  0  0  0  0
  2  3  1  0  0  0  0
  2  4  1  0  0  0  0
  2  5  1  0  0  0  0
  1  2  1  0  0  0  0
 16 17  2  0  0  0  0
 16 18  1  0  0  0  0
 14 15  1  0  0  0  0
 11 12  1  0  0  0  0
 11 13  1  0  0  0  0
 11 14  1  0  0  0  0
  9 10  1  0  0  0  0
  9 11  1  0  0  0  0
  9 16  1  0  0  0  0
  7  8  1  0  0  0  0
  7  9  1  0  0  0  0
 20 21  1  0  0  0  0
 20 22  1  0  0  0  0
 20 23  1  0  0  0  0
 18 19  1  0  0  0  0
 18 20  1  0  0  0  0
M  END
$$$$
default_name
  -OEChem-01062215323D

 23 22  0     1  0  0  0  0  0999 V2000
   -2.6721   -3.7279    0.7212 H   0  0  0  0  0  0  0  0  0  0  0  0
   -2.6561   -2.6819    0.4162 C   0  0  0  0  0  0  0  0  0  0  0  0
   -3.2401   -2.0889    1.1172 H   0  0  0  0  0  0  0  0  0  0  0  0
   -3.0671   -2.5859   -0.5858 H   0  0  0  0  0  0  0  0  0  0  0  0
   -1.2261   -2.1939    0.4202 C   0  0  0  0  0  0  0  0  0  0  0  0
   -0.3181   -2.9519    0.7312 O   0  0  0  0  0  0  0  0  0  0  0  0
   -1.0281   -0.9259    0.0662 N   0  0  0  0  0  0  0  0  0  0  0  0
   -1.8301   -0.3519   -0.1548 H   0  0  0  0  0  0  0  0  0  0  0  0
    0.2709   -0.2409    0.0912 C   0  0  1  0  0  0  0  0  0  0  0  0
    0.9610   -0.8195    0.7057 H   0  0  0  0  0  0  0  0  0  0  0  0
    0.8490   -0.1656   -1.3279 C   0  0  0  0  0  0  0  0  0  0  0  0
    1.8565    0.2512   -1.2822 H   0  0  0  0  0  0  0  0  0  0  0  0
    0.9020   -1.1691   -1.7539 H   0  0  0  0  0  0  0  0  0  0  0  0
    0.0516    0.6611   -2.1549 O   0  0  0  0  0  0  0  0  0  0  0  0
    0.5332    0.8232   -2.9732 H   0  0  0  0  0  0  0  0  0  0  0  0
    0.1327    1.1568    0.7173 C   0  0  0  0  0  0  0  0  0  0  0  0
   -0.9290    1.7734    0.6203 O   0  0  0  0  0  0  0  0  0  0  0  0
    1.1909    1.6534    1.3670 N   0  0  0  0  0  0  0  0  0  0  0  0
    2.0463    1.1164    1.3144 H   0  0  0  0  0  0  0  0  0  0  0  0
    1.2222    2.9529    2.0352 C   0  0  0  0  0  0  0  0  0  0  0  0
    0.3132    3.0871    2.6256 H   0  0  0  0  0  0  0  0  0  0  0  0
    2.0898    3.0171    2.6925 H   0  0  0  0  0  0  0  0  0  0  0  0
    1.2741    3.7478    1.2883 H   0  0  0  0  0  0  0  0  0  0  0  0
  5  6  2  0  0  0  0
  5  7  1  0  0  0  0
  2  3  1  0  0  0  0
  2  4  1  0  0  0  0
  2  5  1  0  0  0  0
  1  2  1  0  0  0  0
 16 17  2  0  0  0  0
 16 18  1  0  0  0  0
 14 15  1  0  0  0  0
 11 12  1  0  0  0  0
 11 13  1  0  0  0  0
 11 14  1  0  0  0  0
  9 10  1  0  0  0  0
  9 11  1  0  0  0  0
  9 16  1  0  0  0  0
  7  8  1  0  0  0  0
  7  9  1  0  0  0  0
 20 21  1  0  0  0  0
 20 22  1  0  0  0  0
 20 23  1  0  0  0  0
 18 19  1  0  0  0  0
 18 20  1  0  0  0  0
M  END
$$$$
default_name
  -OEChem-01062215323D

 23 22  0     1  0  0  0  0  0999 V2000
   -2.6721   -3.7279    0.7212 H   0  0  0  0  0  0  0  0  0  0  0  0
   -2.6561   -2.6819    0.4162 C   0  0  0  0  0  0  0  0  0  0  0  0
   -3.2401   -2.0889    1.1172 H   0  0  0  0  0  0  0  0  0  0  0  0
   -3.0671   -2.5859   -0.5858 H   0  0  0  0  0  0  0  0  0  0  0  0
   -1.2261   -2.1939    0.4202 C   0  0  0  0  0  0  0  0  0  0  0  0
   -0.3181   -2.9519    0.7312 O   0  0  0  0  0  0  0  0  0  0  0  0
   -1.0281   -0.9259    0.0662 N   0  0  0  0  0  0  0  0  0  0  0  0
   -1.8301   -0.3519   -0.1548 H   0  0  0  0  0  0  0  0  0  0  0  0
    0.2709   -0.2409    0.0912 C   0  0  1  0  0  0  0  0  0  0  0  0
    0.9610   -0.8195    0.7057 H   0  0  0  0  0  0  0  0  0  0  0  0
    0.8490   -0.1656   -1.3279 C   0  0  0  0  0  0  0  0  0  0  0  0
    1.8565    0.2512   -1.2822 H   0  0  0  0  0  0  0  0  0  0  0  0
    0.9020   -1.1691   -1.7539 H   0  0  0  0  0  0  0  0  0  0  0  0
    0.0516    0.6611   -2.1549 O   0  0  0  0  0  0  0  0  0  0  0  0
    0.5332    0.8232   -2.9732 H   0  0  0  0  0  0  0  0  0  0  0  0
    0.1327    1.1568    0.7173 C   0  0  0  0  0  0  0  0  0  0  0  0
   -0.9825    1.6574    0.8676 O   0  0  0  0  0  0  0  0  0  0  0  0
    1.2535    1.7823    1.0930 N   0  0  0  0  0  0  0  0  0  0  0  0
    2.1257    1.3343    0.8453 H   0  0  0  0  0  0  0  0  0  0  0  0
    1.2995    3.1013    1.7210 C   0  0  0  0  0  0  0  0  0  0  0  0
    0.5449    3.1627    2.5081 H   0  0  0  0  0  0  0  0  0  0  0  0
    2.2847    3.2778    2.1536 H   0  0  0  0  0  0  0  0  0  0  0  0
    1.0890    3.8700    0.9745 H   0  0  0  0  0  0  0  0  0  0  0  0
  5  6  2  0  0  0  0
  5  7  1  0  0  0  0
  2  3  1  0  0  0  0
  2  4  1  0  0  0  0
  2  5  1  0  0  0  0
  1  2  1  0  0  0  0
 16 17  2  0  0  0  0
 16 18  1  0  0  0  0
 14 15  1  0  0  0  0
 11 12  1  0  0  0  0
 11 13  1  0  0  0  0
 11 14  1  0  0  0  0
  9 10  1  0  0  0  0
  9 11  1  0  0  0  0
  9 16  1  0  0  0  0
  7  8  1  0  0  0  0
  7  9  1  0  0  0  0
 20 21  1  0  0  0  0
 20 22  1  0  0  0  0
 20 23  1  0  0  0  0
 18 19  1  0  0  0  0
 18 20  1  0  0  0  0
M  END
$$$$
default_name
  -OEChem-01062215323D

 23 22  0     1  0  0  0  0  0999 V2000
   -2.6721   -3.7279    0.7212 H   0  0  0  0  0  0  0  0  0  0  0  0
   -2.6561   -2.6819    0.4162 C   0  0  0  0  0  0  0  0  0  0  0  0
   -3.2401   -2.0889    1.1172 H   0  0  0  0  0  0  0  0  0  0  0  0
   -3.0671   -2.5859   -0.5858 H   0  0  0  0  0  0  0  0  0  0  0  0
   -1.2261   -2.1939    0.4202 C   0  0  0  0  0  0  0  0  0  0  0  0
   -0.3181   -2.9519    0.7312 O   0  0  0  0  0  0  0  0  0  0  0  0
   -1.0281   -0.9259    0.0662 N   0  0  0  0  0  0  0  0  0  0  0  0
   -1.8301   -0.3519   -0.1548 H   0  0  0  0  0  0  0  0  0  0  0  0
    0.2709   -0.2409    0.0912 C   0  0  1  0  0  0  0  0  0  0  0  0
    1.0248   -0.9318    0.4692 H   0  0  0  0  0  0  0  0  0  0  0  0
    0.6734    0.1675   -1.3318 C   0  0  0  0  0  0  0  0  0  0  0  0
    1.6830    0.5814   -1.3132 H   0  0  0  0  0  0  0  0  0  0  0  0
    0.6647   -0.7109   -1.9797 H   0  0  0  0  0  0  0  0  0  0  0  0
   -0.2104    1.1466   -1.8453 O   0  0  0  0  0  0  0  0  0  0  0  0
    0.1701    1.5003   -2.6565 H   0  0  0  0  0  0  0  0  0  0  0  0
    0.2231    0.9739    1.0329 C   0  0  0  0  0  0  0  0  0  0  0  0
   -0.8125    1.2394    1.6444 O   0  0  0  0  0  0  0  0  0  0  0  0
    1.3366    1.7032    1.1623 N   0  0  0  0  0  0  0  0  0  0  0  0
    2.1066    1.4646    0.5515 H   0  0  0  0  0  0  0  0  0  0  0  0
    1.4689    2.8730    2.0285 C   0  0  0  0  0  0  0  0  0  0  0  0
    1.0358    2.6588    3.0079 H   0  0  0  0  0  0  0  0  0  0  0  0
    2.5206    3.1339    2.1503 H   0  0  0  0  0  0  0  0  0  0  0  0
    0.9351    3.7175    1.5877 H   0  0  0  0  0  0  0  0  0  0  0  0
  5  6  2  0  0  0  0
  5  7  1  0  0  0  0
  2  3  1  0  0  0  0
  2  4  1  0  0  0  0
  2  5  1  0  0  0  0
  1  2  1  0  0  0  0
 16 17  2  0  0  0  0
 16 18  1  0  0  0  0
 14 15  1  0  0  0  0
 11 12  1  0  0  0  0
 11 13  1  0  0  0  0
 11 14  1  0  0  0  0
  9 10  1  0  0  0  0
  9 11  1  0  0  0  0
  9 16  1  0  0  0  0
  7  8  1  0  0  0  0
  7  9  1  0  0  0  0
 20 21  1  0  0  0  0
 20 22  1  0  0  0  0
 20 23  1  0  0  0  0
 18 19  1  0  0  0  0
 18 20  1  0  0  0  0
M  END
$$$$
default_name
  -OEChem-01062215323D

 23 22  0     1  0  0  0  0  0999 V2000
   -2.6721   -3.7279    0.7212 H   0  0  0  0  0  0  0  0  0  0  0  0
   -2.6561   -2.6819    0.4162 C   0  0  0  0  0  0  0  0  0  0  0  0
   -3.2401   -2.0889    1.1172 H   0  0  0  0  0  0  0  0  0  0  0  0
   -3.0671   -2.5859   -0.5858 H   0  0  0  0  0  0  0  0  0  0  0  0
   -1.2261   -2.1939    0.4202 C   0  0  0  0  0  0  0  0  0  0  0  0
   -0.3181   -2.9519    0.7312 O   0  0  0  0  0  0  0  0  0  0  0  0
   -1.0281   -0.9259    0.0662 N   0  0  0  0  0  0  0  0  0  0  0  0
   -1.8301   -0.3519   -0.1548 H   0  0  0  0  0  0  0  0  0  0  0  0
    0.2709   -0.2409    0.0912 C   0  0  1  0  0  0  0  0  0  0  0  0
    1.0248   -0.9318    0.4692 H   0  0  0  0  0  0  0  0  0  0  0  0
    0.6734    0.1675   -1.3318 C   0  0  0  0  0  0  0  0  0  0  0  0
    1.6830    0.5814   -1.3132 H   0  0  0  0  0  0  0  0  0  0  0  0
    0.6647   -0.7109   -1.9797 H   0  0  0  0  0  0  0  0  0  0  0  0
   -0.2104    1.1466   -1.8453 O   0  0  0  0  0  0  0  0  0  0  0  0
    0.1701    1.5003   -2.6565 H   0  0  0  0  0  0  0  0  0  0  0  0
    0.2231    0.9739    1.0329 C   0  0  0  0  0  0  0  0  0  0  0  0
   -0.6949    1.0877    1.8460 O   0  0  0  0  0  0  0  0  0  0  0  0
    1.2089    1.8726    0.9373 N   0  0  0  0  0  0  0  0  0  0  0  0
    1.8662    1.7435    0.1796 H   0  0  0  0  0  0  0  0  0  0  0  0
    1.3268    3.0695    1.7678 C   0  0  0  0  0  0  0  0  0  0  0  0
    1.1422    2.8138    2.8134 H   0  0  0  0  0  0  0  0  0  0  0  0
    2.3259    3.4958    1.6735 H   0  0  0  0  0  0  0  0  0  0  0  0
    0.5868    3.8082    1.4530 H   0  0  0  0  0  0  0  0  0  0  0  0
  5  6  2  0  0  0  0
  5  7  1  0  0  0  0
  2  3  1  0  0  0  0
  2  4  1  0  0  0  0
  2  5  1  0  0  0  0
  1  2  1  0  0  0  0
 16 17  2  0  0  0  0
 16 18  1  0  0  0  0
 14 15  1  0  0  0  0
 11 12  1  0  0  0  0
 11 13  1  0  0  0  0
 11 14  1  0  0  0  0
  9 10  1  0  0  0  0
  9 11  1  0  0  0  0
  9 16  1  0  0  0  0
  7  8  1  0  0  0  0
  7  9  1  0  0  0  0
 20 21  1  0  0  0  0
 20 22  1  0  0  0  0
 20 23  1  0  0  0  0
 18 19  1  0  0  0  0
 18 20  1  0  0  0  0
M  END
$$$$
default_name
  -OEChem-01062215323D

 23 22  0     1  0  0  0  0  0999 V2000
   -2.6721   -3.7279    0.7212 H   0  0  0  0  0  0  0  0  0  0  0  0
   -2.6561   -2.6819    0.4162 C   0  0  0  0  0  0  0  0  0  0  0  0
   -3.2401   -2.0889    1.1172 H   0  0  0  0  0  0  0  0  0  0  0  0
   -3.0671   -2.5859   -0.5858 H   0  0  0  0  0  0  0  0  0  0  0  0
   -1.2261   -2.1939    0.4202 C   0  0  0  0  0  0  0  0  0  0  0  0
   -0.3181   -2.9519    0.7312 O   0  0  0  0  0  0  0  0  0  0  0  0
   -1.0281   -0.9259    0.0662 N   0  0  0  0  0  0  0  0  0  0  0  0
   -1.8301   -0.3519   -0.1548 H   0  0  0  0  0  0  0  0  0  0  0  0
    0.2709   -0.2409    0.0912 C   0  0  1  0  0  0  0  0  0  0  0  0
    1.0248   -0.9318    0.4692 H   0  0  0  0  0  0  0  0  0  0  0  0
    0.6734    0.1675   -1.3318 C   0  0  0  0  0  0  0  0  0  0  0  0
    1.6830    0.5814   -1.3132 H   0  0  0  0  0  0  0  0  0  0  0  0
    0.6647   -0.7109   -1.9797 H   0  0  0  0  0  0  0  0  0  0  0  0
   -0.2104    1.1466   -1.8453 O   0  0  0  0  0  0  0  0  0  0  0  0
    0.1701    1.5003   -2.6565 H   0  0  0  0  0  0  0  0  0  0  0  0
    0.2231    0.9739    1.0329 C   0  0  0  0  0  0  0  0  0  0  0  0
   -0.5160    0.9615    2.0179 O   0  0  0  0  0  0  0  0  0  0  0  0
    1.0127    2.0141    0.7448 N   0  0  0  0  0  0  0  0  0  0  0  0
    1.5137    1.9718   -0.1327 H   0  0  0  0  0  0  0  0  0  0  0  0
    1.1051    3.2347    1.5435 C   0  0  0  0  0  0  0  0  0  0  0  0
    1.1806    2.9788    2.6025 H   0  0  0  0  0  0  0  0  0  0  0  0
    1.9831    3.8108    1.2499 H   0  0  0  0  0  0  0  0  0  0  0  0
    0.2084    3.8395    1.3933 H   0  0  0  0  0  0  0  0  0  0  0  0
  5  6  2  0  0  0  0
  5  7  1  0  0  0  0
  2  3  1  0  0  0  0
  2  4  1  0  0  0  0
  2  5  1  0  0  0  0
  1  2  1  0  0  0  0
 16 17  2  0  0  0  0
 16 18  1  0  0  0  0
 14 15  1  0  0  0  0
 11 12  1  0  0  0  0
 11 13  1  0  0  0  0
 11 14  1  0  0  0  0
  9 10  1  0  0  0  0
  9 11  1  0  0  0  0
  9 16  1  0  0  0  0
  7  8  1  0  0  0  0
  7  9  1  0  0  0  0
 20 21  1  0  0  0  0
 20 22  1  0  0  0  0
 20 23  1  0  0  0  0
 18 19  1  0  0  0  0
 18 20  1  0  0  0  0
M  END
$$$$
default_name
  -OEChem-01062215323D

 23 22  0     1  0  0  0  0  0999 V2000
   -2.6721   -3.7279    0.7212 H   0  0  0  0  0  0  0  0  0  0  0  0
   -2.6561   -2.6819    0.4162 C   0  0  0  0  0  0  0  0  0  0  0  0
   -3.2401   -2.0889    1.1172 H   0  0  0  0  0  0  0  0  0  0  0  0
   -3.0671   -2.5859   -0.5858 H   0  0  0  0  0  0  0  0  0  0  0  0
   -1.2261   -2.1939    0.4202 C   0  0  0  0  0  0  0  0  0  0  0  0
   -0.3181   -2.9519    0.7312 O   0  0  0  0  0  0  0  0  0  0  0  0
   -1.0281   -0.9259    0.0662 N   0  0  0  0  0  0  0  0  0  0  0  0
   -1.8301   -0.3519   -0.1548 H   0  0  0  0  0  0  0  0  0  0  0  0
    0.2709   -0.2409    0.0912 C   0  0  1  0  0  0  0  0  0  0  0  0
    1.0248   -0.9318    0.4692 H   0  0  0  0  0  0  0  0  0  0  0  0
    0.6734    0.1675   -1.3318 C   0  0  0  0  0  0  0  0  0  0  0  0
    1.6830    0.5814   -1.3132 H   0  0  0  0  0  0  0  0  0  0  0  0
    0.6647   -0.7109   -1.9797 H   0  0  0  0  0  0  0  0  0  0  0  0
   -0.2104    1.1466   -1.8453 O   0  0  0  0  0  0  0  0  0  0  0  0
    0.1701    1.5003   -2.6565 H   0  0  0  0  0  0  0  0  0  0  0  0
    0.2231    0.9739    1.0329 C   0  0  0  0  0  0  0  0  0  0  0  0
   -0.2882    0.8693    2.1484 O   0  0  0  0  0  0  0  0  0  0  0  0
    0.7613    2.1182    0.5977 N   0  0  0  0  0  0  0  0  0  0  0  0
    1.0733    2.1339   -0.3642 H   0  0  0  0  0  0  0  0  0  0  0  0
    0.8189    3.3573    1.3708 C   0  0  0  0  0  0  0  0  0  0  0  0
    1.1485    3.1426    2.3896 H   0  0  0  0  0  0  0  0  0  0  0  0
    1.5154    4.0572    0.9082 H   0  0  0  0  0  0  0  0  0  0  0  0
   -0.1742    3.8093    1.4128 H   0  0  0  0  0  0  0  0  0  0  0  0
  5  6  2  0  0  0  0
  5  7  1  0  0  0  0
  2  3  1  0  0  0  0
  2  4  1  0  0  0  0
  2  5  1  0  0  0  0
  1  2  1  0  0  0  0
 16 17  2  0  0  0  0
 16 18  1  0  0  0  0
 14 15  1  0  0  0  0
 11 12  1  0  0  0  0
 11 13  1  0  0  0  0
 11 14  1  0  0  0  0
  9 10  1  0  0  0  0
  9 11  1  0  0  0  0
  9 16  1  0  0  0  0
  7  8  1  0  0  0  0
  7  9  1  0  0  0  0
 20 21  1  0  0  0  0
 20 22  1  0  0  0  0
 20 23  1  0  0  0  0
 18 19  1  0  0  0  0
 18 20  1  0  0  0  0
M  END
$$$$
default_name
  -OEChem-01062215323D

 23 22  0     1  0  0  0  0  0999 V2000
   -2.6721   -3.7279    0.7212 H   0  0  0  0  0  0  0  0  0  0  0  0
   -2.6561   -2.6819    0.4162 C   0  0  0  0  0  0  0  0  0  0  0  0
   -3.2401   -2.0889    1.1172 H   0  0  0  0  0  0  0  0  0  0  0  0
   -3.0671   -2.5859   -0.5858 H   0  0  0  0  0  0  0  0  0  0  0  0
   -1.2261   -2.1939    0.4202 C   0  0  0  0  0  0  0  0  0  0  0  0
   -0.3181   -2.9519    0.7312 O   0  0  0  0  0  0  0  0  0  0  0  0
   -1.0281   -0.9259    0.0662 N   0  0  0  0  0  0  0  0  0  0  0  0
   -1.8301   -0.3519   -0.1548 H   0  0  0  0  0  0  0  0  0  0  0  0
    0.2709   -0.2409    0.0912 C   0  0  1  0  0  0  0  0  0  0  0  0
    1.0248   -0.9318    0.4692 H   0  0  0  0  0  0  0  0  0  0  0  0
    0.6734    0.1675   -1.3318 C   0  0  0  0  0  0  0  0  0  0  0  0
    1.6830    0.5814   -1.3132 H   0  0  0  0  0  0  0  0  0  0  0  0
    0.6647   -0.7109   -1.9797 H   0  0  0  0  0  0  0  0  0  0  0  0
   -0.2104    1.1466   -1.8453 O   0  0  0  0  0  0  0  0  0  0  0  0
    0.1701    1.5003   -2.6565 H   0  0  0  0  0  0  0  0  0  0  0  0
    0.2231    0.9739    1.0329 C   0  0  0  0  0  0  0  0  0  0  0  0
   -0.0267    0.8174    2.2286 O   0  0  0  0  0  0  0  0  0  0  0  0
    0.4720    2.1777    0.5062 N   0  0  0  0  0  0  0  0  0  0  0  0
    0.5748    2.2188   -0.4990 H   0  0  0  0  0  0  0  0  0  0  0  0
    0.4877    3.4290    1.2615 C   0  0  0  0  0  0  0  0  0  0  0  0
    1.0479    3.2940    2.1892 H   0  0  0  0  0  0  0  0  0  0  0  0
    0.9547    4.2184    0.6718 H   0  0  0  0  0  0  0  0  0  0  0  0
   -0.5350    3.7197    1.5102 H   0  0  0  0  0  0  0  0  0  0  0  0
  5  6  2  0  0  0  0
  5  7  1  0  0  0  0
  2  3  1  0  0  0  0
  2  4  1  0  0  0  0
  2  5  1  0  0  0  0
  1  2  1  0  0  0  0
 16 17  2  0  0  0  0
 16 18  1  0  0  0  0
 14 15  1  0  0  0  0
 11 12  1  0  0  0  0
 11 13  1  0  0  0  0
 11 14  1  0  0  0  0
  9 10  1  0  0  0  0
  9 11  1  0  0  0  0
  9 16  1  0  0  0  0
  7  8  1  0  0  0  0
  7  9  1  0  0  0  0
 20 21  1  0  0  0  0
 20 22  1  0  0  0  0
 20 23  1  0  0  0  0
 18 19  1  0  0  0  0
 18 20  1  0  0  0  0
M  END
$$$$
default_name
  -OEChem-01062215323D

 23 22  0     1  0  0  0  0  0999 V2000
   -2.6721   -3.7279    0.7212 H   0  0  0  0  0  0  0  0  0  0  0  0
   -2.6561   -2.6819    0.4162 C   0  0  0  0  0  0  0  0  0  0  0  0
   -3.2401   -2.0889    1.1172 H   0  0  0  0  0  0  0  0  0  0  0  0
   -3.0671   -2.5859   -0.5858 H   0  0  0  0  0  0  0  0  0  0  0  0
   -1.2261   -2.1939    0.4202 C   0  0  0  0  0  0  0  0  0  0  0  0
   -0.3181   -2.9519    0.7312 O   0  0  0  0  0  0  0  0  0  0  0  0
   -1.0281   -0.9259    0.0662 N   0  0  0  0  0  0  0  0  0  0  0  0
   -1.8301   -0.3519   -0.1548 H   0  0  0  0  0  0  0  0  0  0  0  0
    0.2709   -0.2409    0.0912 C   0  0  1  0  0  0  0  0  0  0  0  0
    1.0248   -0.9318    0.4692 H   0  0  0  0  0  0  0  0  0  0  0  0
    0.6734    0.1675   -1.3318 C   0  0  0  0  0  0  0  0  0  0  0  0
    1.6830    0.5814   -1.3132 H   0  0  0  0  0  0  0  0  0  0  0  0
    0.6647   -0.7109   -1.9797 H   0  0  0  0  0  0  0  0  0  0  0  0
   -0.2104    1.1466   -1.8453 O   0  0  0  0  0  0  0  0  0  0  0  0
    0.1701    1.5003   -2.6565 H   0  0  0  0  0  0  0  0  0  0  0  0
    0.2231    0.9739    1.0329 C   0  0  0  0  0  0  0  0  0  0  0  0
    0.2504    0.8093    2.2531 O   0  0  0  0  0  0  0  0  0  0  0  0
    0.1644    2.1886    0.4766 N   0  0  0  0  0  0  0  0  0  0  0  0
    0.0522    2.2207   -0.5280 H   0  0  0  0  0  0  0  0  0  0  0  0
    0.1341    3.4449    1.2230 C   0  0  0  0  0  0  0  0  0  0  0  0
    0.8858    3.4226    2.0150 H   0  0  0  0  0  0  0  0  0  0  0  0
    0.3392    4.2833    0.5568 H   0  0  0  0  0  0  0  0  0  0  0  0
   -0.8494    3.5767    1.6787 H   0  0  0  0  0  0  0  0  0  0  0  0
  5  6  2  0  0  0  0
  5  7  1  0  0  0  0
  2  3  1  0  0  0  0
  2  4  1  0  0  0  0
  2  5  1  0  0  0  0
  1  2  1  0  0  0  0
 16 17  2  0  0  0  0
 16 18  1  0  0  0  0
 14 15  1  0  0  0  0
 11 12  1  0  0  0  0
 11 13  1  0  0  0  0
 11 14  1  0  0  0  0
  9 10  1  0  0  0  0
  9 11  1  0  0  0  0
  9 16  1  0  0  0  0
  7  8  1  0  0  0  0
  7  9  1  0  0  0  0
 20 21  1  0  0  0  0
 20 22  1  0  0  0  0
 20 23  1  0  0  0  0
 18 19  1  0  0  0  0
 18 20  1  0  0  0  0
M  END
$$$$
default_name
  -OEChem-01062215323D

 23 22  0     1  0  0  0  0  0999 V2000
   -2.6721   -3.7279    0.7212 H   0  0  0  0  0  0  0  0  0  0  0  0
   -2.6561   -2.6819    0.4162 C   0  0  0  0  0  0  0  0  0  0  0  0
   -3.2401   -2.0889    1.1172 H   0  0  0  0  0  0  0  0  0  0  0  0
   -3.0671   -2.5859   -0.5858 H   0  0  0  0  0  0  0  0  0  0  0  0
   -1.2261   -2.1939    0.4202 C   0  0  0  0  0  0  0  0  0  0  0  0
   -0.3181   -2.9519    0.7312 O   0  0  0  0  0  0  0  0  0  0  0  0
   -1.0281   -0.9259    0.0662 N   0  0  0  0  0  0  0  0  0  0  0  0
   -1.8301   -0.3519   -0.1548 H   0  0  0  0  0  0  0  0  0  0  0  0
    0.2709   -0.2409    0.0912 C   0  0  1  0  0  0  0  0  0  0  0  0
    1.0248   -0.9318    0.4692 H   0  0  0  0  0  0  0  0  0  0  0  0
    0.6734    0.1675   -1.3318 C   0  0  0  0  0  0  0  0  0  0  0  0
    1.6830    0.5814   -1.3132 H   0  0  0  0  0  0  0  0  0  0  0  0
    0.6647   -0.7109   -1.9797 H   0  0  0  0  0  0  0  0  0  0  0  0
   -0.2104    1.1466   -1.8453 O   0  0  0  0  0  0  0  0  0  0  0  0
    0.1701    1.5003   -2.6565 H   0  0  0  0  0  0  0  0  0  0  0  0
    0.2231    0.9739    1.0329 C   0  0  0  0  0  0  0  0  0  0  0  0
    0.5244    0.8457    2.2201 O   0  0  0  0  0  0  0  0  0  0  0  0
   -0.1406    2.1502    0.5107 N   0  0  0  0  0  0  0  0  0  0  0  0
   -0.4587    2.1395   -0.4492 H   0  0  0  0  0  0  0  0  0  0  0  0
   -0.2178    3.4039    1.2581 C   0  0  0  0  0  0  0  0  0  0  0  0
    0.6733    3.5198    1.8788 H   0  0  0  0  0  0  0  0  0  0  0  0
   -0.2890    4.2476    0.5711 H   0  0  0  0  0  0  0  0  0  0  0  0
   -1.0960    3.3901    1.9069 H   0  0  0  0  0  0  0  0  0  0  0  0
  5  6  2  0  0  0  0
  5  7  1  0  0  0  0
  2  3  1  0  0  0  0
  2  4  1  0  0  0  0
  2  5  1  0  0  0  0
  1  2  1  0  0  0  0
 16 17  2  0  0  0  0
 16 18  1  0  0  0  0
 14 15  1  0  0  0  0
 11 12  1  0  0  0  0
 11 13  1  0  0  0  0
 11 14  1  0  0  0  0
  9 10  1  0  0  0  0
  9 11  1  0  0  0  0
  9 16  1  0  0  0  0
  7  8  1  0  0  0  0
  7  9  1  0  0  0  0
 20 21  1  0  0  0  0
 20 22  1  0  0  0  0
 20 23  1  0  0  0  0
 18 19  1  0  0  0  0
 18 20  1  0  0  0  0
M  END
$$$$
default_name
  -OEChem-01062215323D

 23 22  0     1  0  0  0  0  0999 V2000
   -2.6721   -3.7279    0.7212 H   0  0  0  0  0  0  0  0  0  0  0  0
   -2.6561   -2.6819    0.4162 C   0  0  0  0  0  0  0  0  0  0  0  0
   -3.2401   -2.0889    1.1172 H   0  0  0  0  0  0  0  0  0  0  0  0
   -3.0671   -2.5859   -0.5858 H   0  0  0  0  0  0  0  0  0  0  0  0
   -1.2261   -2.1939    0.4202 C   0  0  0  0  0  0  0  0  0  0  0  0
   -0.3181   -2.9519    0.7312 O   0  0  0  0  0  0  0  0  0  0  0  0
   -1.0281   -0.9259    0.0662 N   0  0  0  0  0  0  0  0  0  0  0  0
   -1.8301   -0.3519   -0.1548 H   0  0  0  0  0  0  0  0  0  0  0  0
    0.2709   -0.2409    0.0912 C   0  0  1  0  0  0  0  0  0  0  0  0
    1.0248   -0.9318    0.4692 H   0  0  0  0  0  0  0  0  0  0  0  0
    0.6734    0.1675   -1.3318 C   0  0  0  0  0  0  0  0  0  0  0  0
    1.6830    0.5814   -1.3132 H   0  0  0  0  0  0  0  0  0  0  0  0
    0.6647   -0.7109   -1.9797 H   0  0  0  0  0  0  0  0  0  0  0  0
   -0.2104    1.1466   -1.8453 O   0  0  0  0  0  0  0  0  0  0  0  0
    0.1701    1.5003   -2.6565 H   0  0  0  0  0  0  0  0  0  0  0  0
    0.2231    0.9739    1.0329 C   0  0  0  0  0  0  0  0  0  0  0  0
    0.7765    0.9239    2.1319 O   0  0  0  0  0  0  0  0  0  0  0  0
   -0.4220    2.0650    0.6063 N   0  0  0  0  0  0  0  0  0  0  0  0
   -0.9233    1.9807   -0.2680 H   0  0  0  0  0  0  0  0  0  0  0  0
   -0.5440    3.3087    1.3642 C   0  0  0  0  0  0  0  0  0  0  0  0
    0.4247    3.5789    1.7899 H   0  0  0  0  0  0  0  0  0  0  0  0
   -0.8873    4.1136    0.7136 H   0  0  0  0  0  0  0  0  0  0  0  0
   -1.2580    3.1726    2.1792 H   0  0  0  0  0  0  0  0  0  0  0  0
  5  6  2  0  0  0  0
  5  7  1  0  0  0  0
  2  3  1  0  0  0  0
  2  4  1  0  0  0  0
  2  5  1  0  0  0  0
  1  2  1  0  0  0  0
 16 17  2  0  0  0  0
 16 18  1  0  0  0  0
 14 15  1  0  0  0  0
 11 12  1  0  0  0  0
 11 13  1  0  0  0  0
 11 14  1  0  0  0  0
  9 10  1  0  0  0  0
  9 11  1  0  0  0  0
  9 16  1  0  0  0  0
  7  8  1  0  0  0  0
  7  9  1  0  0  0  0
 20 21  1  0  0  0  0
 20 22  1  0  0  0  0
 20 23  1  0  0  0  0
 18 19  1  0  0  0  0
 18 20  1  0  0  0  0
M  END
$$$$
default_name
  -OEChem-01062215323D

 23 22  0     1  0  0  0  0  0999 V2000
   -2.6721   -3.7279    0.7212 H   0  0  0  0  0  0  0  0  0  0  0  0
   -2.6561   -2.6819    0.4162 C   0  0  0  0  0  0  0  0  0  0  0  0
   -3.2401   -2.0889    1.1172 H   0  0  0  0  0  0  0  0  0  0  0  0
   -3.0671   -2.5859   -0.5858 H   0  0  0  0  0  0  0  0  0  0  0  0
   -1.2261   -2.1939    0.4202 C   0  0  0  0  0  0  0  0  0  0  0  0
   -0.3181   -2.9519    0.7312 O   0  0  0  0  0  0  0  0  0  0  0  0
   -1.0281   -0.9259    0.0662 N   0  0  0  0  0  0  0  0  0  0  0  0
   -1.8301   -0.3519   -0.1548 H   0  0  0  0  0  0  0  0  0  0  0  0
    0.2709   -0.2409    0.0912 C   0  0  1  0  0  0  0  0  0  0  0  0
    1.0248   -0.9318    0.4692 H   0  0  0  0  0  0  0  0  0  0  0  0
    0.6734    0.1675   -1.3318 C   0  0  0  0  0  0  0  0  0  0  0  0
    1.6830    0.5814   -1.3132 H   0  0  0  0  0  0  0  0  0  0  0  0
    0.6647   -0.7109   -1.9797 H   0  0  0  0  0  0  0  0  0  0  0  0
   -0.2104    1.1466   -1.8453 O   0  0  0  0  0  0  0  0  0  0  0  0
    0.1701    1.5003   -2.6565 H   0  0  0  0  0  0  0  0  0  0  0  0
    0.2231    0.9739    1.0329 C   0  0  0  0  0  0  0  0  0  0  0  0
    0.9897    1.0388    1.9946 O   0  0  0  0  0  0  0  0  0  0  0  0
   -0.6608    1.9388    0.7569 N   0  0  0  0  0  0  0  0  0  0  0  0
   -1.3098    1.7552    0.0033 H   0  0  0  0  0  0  0  0  0  0  0  0
   -0.8224    3.1660    1.5342 C   0  0  0  0  0  0  0  0  0  0  0  0
    0.1570    3.5959    1.7544 H   0  0  0  0  0  0  0  0  0  0  0  0
   -1.4149    3.8905    0.9746 H   0  0  0  0  0  0  0  0  0  0  0  0
   -1.3243    2.9391    2.4771 H   0  0  0  0  0  0  0  0  0  0  0  0
  5  6  2  0  0  0  0
  5  7  1  0  0  0  0
  2  3  1  0  0  0  0
  2  4  1  0  0  0  0
  2  5  1  0  0  0  0
  1  2  1  0  0  0  0
 16 17  2  0  0  0  0
 16 18  1  0  0  0  0
 14 15  1  0  0  0  0
 11 12  1  0  0  0  0
 11 13  1  0  0  0  0
 11 14  1  0  0  0  0
  9 10  1  0  0  0  0
  9 11  1  0  0  0  0
  9 16  1  0  0  0  0
  7  8  1  0  0  0  0
  7  9  1  0  0  0  0
 20 21  1  0  0  0  0
 20 22  1  0  0  0  0
 20 23  1  0  0  0  0
 18 19  1  0  0  0  0
 18 20  1  0  0  0  0
M  END
$$$$
default_name
  -OEChem-01062215323D

 23 22  0     1  0  0  0  0  0999 V2000
   -2.6721   -3.7279    0.7212 H   0  0  0  0  0  0  0  0  0  0  0  0
   -2.6561   -2.6819    0.4162 C   0  0  0  0  0  0  0  0  0  0  0  0
   -3.2401   -2.0889    1.1172 H   0  0  0  0  0  0  0  0  0  0  0  0
   -3.0671   -2.5859   -0.5858 H   0  0  0  0  0  0  0  0  0  0  0  0
   -1.2261   -2.1939    0.4202 C   0  0  0  0  0  0  0  0  0  0  0  0
   -0.3181   -2.9519    0.7312 O   0  0  0  0  0  0  0  0  0  0  0  0
   -1.0281   -0.9259    0.0662 N   0  0  0  0  0  0  0  0  0  0  0  0
   -1.8301   -0.3519   -0.1548 H   0  0  0  0  0  0  0  0  0  0  0  0
    0.2709   -0.2409    0.0912 C   0  0  1  0  0  0  0  0  0  0  0  0
    1.0248   -0.9318    0.4692 H   0  0  0  0  0  0  0  0  0  0  0  0
    0.6734    0.1675   -1.3318 C   0  0  0  0  0  0  0  0  0  0  0  0
    1.6830    0.5814   -1.3132 H   0  0  0  0  0  0  0  0  0  0  0  0
    0.6647   -0.7109   -1.9797 H   0  0  0  0  0  0  0  0  0  0  0  0
   -0.2104    1.1466   -1.8453 O   0  0  0  0  0  0  0  0  0  0  0  0
    0.1701    1.5003   -2.6565 H   0  0  0  0  0  0  0  0  0  0  0  0
    0.2231    0.9739    1.0329 C   0  0  0  0  0  0  0  0  0  0  0  0
    1.1492    1.1824    1.8174 O   0  0  0  0  0  0  0  0  0  0  0  0
   -0.8407    1.7803    0.9523 N   0  0  0  0  0  0  0  0  0  0  0  0
   -1.5920    1.4782    0.3463 H   0  0  0  0  0  0  0  0  0  0  0  0
   -1.0339    2.9854    1.7565 C   0  0  0  0  0  0  0  0  0  0  0  0
   -0.1114    3.5696    1.7747 H   0  0  0  0  0  0  0  0  0  0  0  0
   -1.8357    3.5934    1.3364 H   0  0  0  0  0  0  0  0  0  0  0  0
   -1.2904    2.7053    2.7803 H   0  0  0  0  0  0  0  0  0  0  0  0
  5  6  2  0  0  0  0
  5  7  1  0  0  0  0
  2  3  1  0  0  0  0
  2  4  1  0  0  0  0
  2  5  1  0  0  0  0
  1  2  1  0  0  0  0
 16 17  2  0  0  0  0
 16 18  1  0  0  0  0
 14 15  1  0  0  0  0
 11 12  1  0  0  0  0
 11 13  1  0  0  0  0
 11 14  1  0  0  0  0
  9 10  1  0  0  0  0
  9 11  1  0  0  0  0
  9 16  1  0  0  0  0
  7  8  1  0  0  0  0
  7  9  1  0  0  0  0
 20 21  1  0  0  0  0
 20 22  1  0  0  0  0
 20 23  1  0  0  0  0
 18 19  1  0  0  0  0
 18 20  1  0  0  0  0
M  END
$$$$
default_name
  -OEChem-01062215323D

 23 22  0     1  0  0  0  0  0999 V2000
   -2.6721   -3.7279    0.7212 H   0  0  0  0  0  0  0  0  0  0  0  0
   -2.6561   -2.6819    0.4162 C   0  0  0  0  0  0  0  0  0  0  0  0
   -3.2401   -2.0889    1.1172 H   0  0  0  0  0  0  0  0  0  0  0  0
   -3.0671   -2.5859   -0.5858 H   0  0  0  0  0  0  0  0  0  0  0  0
   -1.2261   -2.1939    0.4202 C   0  0  0  0  0  0  0  0  0  0  0  0
   -0.3181   -2.9519    0.7312 O   0  0  0  0  0  0  0  0  0  0  0  0
   -1.0281   -0.9259    0.0662 N   0  0  0  0  0  0  0  0  0  0  0  0
   -1.8301   -0.3519   -0.1548 H   0  0  0  0  0  0  0  0  0  0  0  0
    0.2709   -0.2409    0.0912 C   0  0  1  0  0  0  0  0  0  0  0  0
    1.0248   -0.9318    0.4692 H   0  0  0  0  0  0  0  0  0  0  0  0
    0.6734    0.1675   -1.3318 C   0  0  0  0  0  0  0  0  0  0  0  0
    1.6830    0.5814   -1.3132 H   0  0  0  0  0  0  0  0  0  0  0  0
    0.6647   -0.7109   -1.9797 H   0  0  0  0  0  0  0  0  0  0  0  0
   -0.2104    1.1466   -1.8453 O   0  0  0  0  0  0  0  0  0  0  0  0
    0.1701    1.5003   -2.6565 H   0  0  0  0  0  0  0  0  0  0  0  0
    0.2231    0.9739    1.0329 C   0  0  0  0  0  0  0  0  0  0  0  0
    1.2444    1.3450    1.6125 O   0  0  0  0  0  0  0  0  0  0  0  0
   -0.9494    1.6003    1.1790 N   0  0  0  0  0  0  0  0  0  0  0  0
   -1.7505    1.1688    0.7374 H   0  0  0  0  0  0  0  0  0  0  0  0
   -1.1642    2.7792    2.0159 C   0  0  0  0  0  0  0  0  0  0  0  0
   -0.3624    3.5018    1.8495 H   0  0  0  0  0  0  0  0  0  0  0  0
   -2.1211    3.2427    1.7743 H   0  0  0  0  0  0  0  0  0  0  0  0
   -1.1586    2.4874    3.0681 H   0  0  0  0  0  0  0  0  0  0  0  0
  5  6  2  0  0  0  0
  5  7  1  0  0  0  0
  2  3  1  0  0  0  0
  2  4  1  0  0  0  0
  2  5  1  0  0  0  0
  1  2  1  0  0  0  0
 16 17  2  0  0  0  0
 16 18  1  0  0  0  0
 14 15  1  0  0  0  0
 11 12  1  0  0  0  0
 11 13  1  0  0  0  0
 11 14  1  0  0  0  0
  9 10  1  0  0  0  0
  9 11  1  0  0  0  0
  9 16  1  0  0  0  0
  7  8  1  0  0  0  0
  7  9  1  0  0  0  0
 20 21  1  0  0  0  0
 20 22  1  0  0  0  0
 20 23  1  0  0  0  0
 18 19  1  0  0  0  0
 18 20  1  0  0  0  0
M  END
$$$$
default_name
  -OEChem-01062215323D

 23 22  0     1  0  0  0  0  0999 V2000
   -2.6721   -3.7279    0.7212 H   0  0  0  0  0  0  0  0  0  0  0  0
   -2.6561   -2.6819    0.4162 C   0  0  0  0  0  0  0  0  0  0  0  0
   -3.2401   -2.0889    1.1172 H   0  0  0  0  0  0  0  0  0  0  0  0
   -3.0671   -2.5859   -0.5858 H   0  0  0  0  0  0  0  0  0  0  0  0
   -1.2261   -2.1939    0.4202 C   0  0  0  0  0  0  0  0  0  0  0  0
   -0.3181   -2.9519    0.7312 O   0  0  0  0  0  0  0  0  0  0  0  0
   -1.0281   -0.9259    0.0662 N   0  0  0  0  0  0  0  0  0  0  0  0
   -1.8301   -0.3519   -0.1548 H   0  0  0  0  0  0  0  0  0  0  0  0
    0.2709   -0.2409    0.0912 C   0  0  1  0  0  0  0  0  0  0  0  0
    1.0248   -0.9318    0.4692 H   0  0  0  0  0  0  0  0  0  0  0  0
    0.6734    0.1675   -1.3318 C   0  0  0  0  0  0  0  0  0  0  0  0
    1.6830    0.5814   -1.3132 H   0  0  0  0  0  0  0  0  0  0  0  0
    0.6647   -0.7109   -1.9797 H   0  0  0  0  0  0  0  0  0  0  0  0
   -0.2104    1.1466   -1.8453 O   0  0  0  0  0  0  0  0  0  0  0  0
    0.1701    1.5003   -2.6565 H   0  0  0  0  0  0  0  0  0  0  0  0
    0.2231    0.9739    1.0329 C   0  0  0  0  0  0  0  0  0  0  0  0
    1.2686    1.5155    1.3939 O   0  0  0  0  0  0  0  0  0  0  0  0
   -0.9796    1.4110    1.4216 N   0  0  0  0  0  0  0  0  0  0  0  0
   -1.7746    0.8479    1.1501 H   0  0  0  0  0  0  0  0  0  0  0  0
   -1.2043    2.5615    2.2947 C   0  0  0  0  0  0  0  0  0  0  0  0
   -0.5789    3.3972    1.9735 H   0  0  0  0  0  0  0  0  0  0  0  0
   -2.2517    2.8623    2.2585 H   0  0  0  0  0  0  0  0  0  0  0  0
   -0.9379    2.3001    3.3209 H   0  0  0  0  0  0  0  0  0  0  0  0
  5  6  2  0  0  0  0
  5  7  1  0  0  0  0
  2  3  1  0  0  0  0
  2  4  1  0  0  0  0
  2  5  1  0  0  0  0
  1  2  1  0  0  0  0
 16 17  2  0  0  0  0
 16 18  1  0  0  0  0
 14 15  1  0  0  0  0
 11 12  1  0  0  0  0
 11 13  1  0  0  0  0
 11 14  1  0  0  0  0
  9 10  1  0  0  0  0
  9 11  1  0  0  0  0
  9 16  1  0  0  0  0
  7  8  1  0  0  0  0
  7  9  1  0  0  0  0
 20 21  1  0  0  0  0
 20 22  1  0  0  0  0
 20 23  1  0  0  0  0
 18 19  1  0  0  0  0
 18 20  1  0  0  0  0
M  END
$$$$
default_name
  -OEChem-01062215323D

 23 22  0     1  0  0  0  0  0999 V2000
   -2.6721   -3.7279    0.7212 H   0  0  0  0  0  0  0  0  0  0  0  0
   -2.6561   -2.6819    0.4162 C   0  0  0  0  0  0  0  0  0  0  0  0
   -3.2401   -2.0889    1.1172 H   0  0  0  0  0  0  0  0  0  0  0  0
   -3.0671   -2.5859   -0.5858 H   0  0  0  0  0  0  0  0  0  0  0  0
   -1.2261   -2.1939    0.4202 C   0  0  0  0  0  0  0  0  0  0  0  0
   -0.3181   -2.9519    0.7312 O   0  0  0  0  0  0  0  0  0  0  0  0
   -1.0281   -0.9259    0.0662 N   0  0  0  0  0  0  0  0  0  0  0  0
   -1.8301   -0.3519   -0.1548 H   0  0  0  0  0  0  0  0  0  0  0  0
    0.2709   -0.2409    0.0912 C   0  0  1  0  0  0  0  0  0  0  0  0
    1.0248   -0.9318    0.4692 H   0  0  0  0  0  0  0  0  0  0  0  0
    0.6734    0.1675   -1.3318 C   0  0  0  0  0  0  0  0  0  0  0  0
    1.6830    0.5814   -1.3132 H   0  0  0  0  0  0  0  0  0  0  0  0
    0.6647   -0.7109   -1.9797 H   0  0  0  0  0  0  0  0  0  0  0  0
   -0.2104    1.1466   -1.8453 O   0  0  0  0  0  0  0  0  0  0  0  0
    0.1701    1.5003   -2.6565 H   0  0  0  0  0  0  0  0  0  0  0  0
    0.2231    0.9739    1.0329 C   0  0  0  0  0  0  0  0  0  0  0  0
    1.2203    1.6822    1.1763 O   0  0  0  0  0  0  0  0  0  0  0  0
   -0.9290    1.2253    1.6637 N   0  0  0  0  0  0  0  0  0  0  0  0
   -1.6626    0.5374    1.5563 H   0  0  0  0  0  0  0  0  0  0  0  0
   -1.1515    2.3470    2.5740 C   0  0  0  0  0  0  0  0  0  0  0  0
   -0.7460    3.2627    2.1384 H   0  0  0  0  0  0  0  0  0  0  0  0
   -2.2185    2.4780    2.7559 H   0  0  0  0  0  0  0  0  0  0  0  0
   -0.6434    2.1562    3.5215 H   0  0  0  0  0  0  0  0  0  0  0  0
  5  6  2  0  0  0  0
  5  7  1  0  0  0  0
  2  3  1  0  0  0  0
  2  4  1  0  0  0  0
  2  5  1  0  0  0  0
  1  2  1  0  0  0  0
 16 17  2  0  0  0  0
 16 18  1  0  0  0  0
 14 15  1  0  0  0  0
 11 12  1  0  0  0  0
 11 13  1  0  0  0  0
 11 14  1  0  0  0  0
  9 10  1  0  0  0  0
  9 11  1  0  0  0  0
  9 16  1  0  0  0  0
  7  8  1  0  0  0  0
  7  9  1  0  0  0  0
 20 21  1  0  0  0  0
 20 22  1  0  0  0  0
 20 23  1  0  0  0  0
 18 19  1  0  0  0  0
 18 20  1  0  0  0  0
M  END
$$$$
default_name
  -OEChem-01062215323D

 23 22  0     1  0  0  0  0  0999 V2000
   -2.6721   -3.7279    0.7212 H   0  0  0  0  0  0  0  0  0  0  0  0
   -2.6561   -2.6819    0.4162 C   0  0  0  0  0  0  0  0  0  0  0  0
   -3.2401   -2.0889    1.1172 H   0  0  0  0  0  0  0  0  0  0  0  0
   -3.0671   -2.5859   -0.5858 H   0  0  0  0  0  0  0  0  0  0  0  0
   -1.2261   -2.1939    0.4202 C   0  0  0  0  0  0  0  0  0  0  0  0
   -0.3181   -2.9519    0.7312 O   0  0  0  0  0  0  0  0  0  0  0  0
   -1.0281   -0.9259    0.0662 N   0  0  0  0  0  0  0  0  0  0  0  0
   -1.8301   -0.3519   -0.1548 H   0  0  0  0  0  0  0  0  0  0  0  0
    0.2709   -0.2409    0.0912 C   0  0  1  0  0  0  0  0  0  0  0  0
    1.0248   -0.9318    0.4692 H   0  0  0  0  0  0  0  0  0  0  0  0
    0.6734    0.1675   -1.3318 C   0  0  0  0  0  0  0  0  0  0  0  0
    1.6830    0.5814   -1.3132 H   0  0  0  0  0  0  0  0  0  0  0  0
    0.6647   -0.7109   -1.9797 H   0  0  0  0  0  0  0  0  0  0  0  0
   -0.2104    1.1466   -1.8453 O   0  0  0  0  0  0  0  0  0  0  0  0
    0.1701    1.5003   -2.6565 H   0  0  0  0  0  0  0  0  0  0  0  0
    0.2231    0.9739    1.0329 C   0  0  0  0  0  0  0  0  0  0  0  0
    1.1027    1.8339    0.9747 O   0  0  0  0  0  0  0  0  0  0  0  0
   -0.8013    1.0559    1.8887 N   0  0  0  0  0  0  0  0  0  0  0  0
   -1.4222    0.2586    1.9282 H   0  0  0  0  0  0  0  0  0  0  0  0
   -1.0094    2.1505    2.8347 C   0  0  0  0  0  0  0  0  0  0  0  0
   -0.8524    3.1078    2.3329 H   0  0  0  0  0  0  0  0  0  0  0  0
   -2.0239    2.1160    3.2327 H   0  0  0  0  0  0  0  0  0  0  0  0
   -0.2951    2.0655    3.6562 H   0  0  0  0  0  0  0  0  0  0  0  0
  5  6  2  0  0  0  0
  5  7  1  0  0  0  0
  2  3  1  0  0  0  0
  2  4  1  0  0  0  0
  2  5  1  0  0  0  0
  1  2  1  0  0  0  0
 16 17  2  0  0  0  0
 16 18  1  0  0  0  0
 14 15  1  0  0  0  0
 11 12  1  0  0  0  0
 11 13  1  0  0  0  0
 11 14  1  0  0  0  0
  9 10  1  0  0  0  0
  9 11  1  0  0  0  0
  9 16  1  0  0  0  0
  7  8  1  0  0  0  0
  7  9  1  0  0  0  0
 20 21  1  0  0  0  0
 20 22  1  0  0  0  0
 20 23  1  0  0  0  0
 18 19  1  0  0  0  0
 18 20  1  0  0  0  0
M  END
$$$$
default_name
  -OEChem-01062215323D

 23 22  0     1  0  0  0  0  0999 V2000
   -2.6721   -3.7279    0.7212 H   0  0  0  0  0  0  0  0  0  0  0  0
   -2.6561   -2.6819    0.4162 C   0  0  0  0  0  0  0  0  0  0  0  0
   -3.2401   -2.0889    1.1172 H   0  0  0  0  0  0  0  0  0  0  0  0
   -3.0671   -2.5859   -0.5858 H   0  0  0  0  0  0  0  0  0  0  0  0
   -1.2261   -2.1939    0.4202 C   0  0  0  0  0  0  0  0  0  0  0  0
   -0.3181   -2.9519    0.7312 O   0  0  0  0  0  0  0  0  0  0  0  0
   -1.0281   -0.9259    0.0662 N   0  0  0  0  0  0  0  0  0  0  0  0
   -1.8301   -0.3519   -0.1548 H   0  0  0  0  0  0  0  0  0  0  0  0
    0.2709   -0.2409    0.0912 C   0  0  1  0  0  0  0  0  0  0  0  0
    1.0248   -0.9318    0.4692 H   0  0  0  0  0  0  0  0  0  0  0  0
    0.6734    0.1675   -1.3318 C   0  0  0  0  0  0  0  0  0  0  0  0
    1.6830    0.5814   -1.3132 H   0  0  0  0  0  0  0  0  0  0  0  0
    0.6647   -0.7109   -1.9797 H   0  0  0  0  0  0  0  0  0  0  0  0
   -0.2104    1.1466   -1.8453 O   0  0  0  0  0  0  0  0  0  0  0  0
    0.1701    1.5003   -2.6565 H   0  0  0  0  0  0  0  0  0  0  0  0
    0.2231    0.9739    1.0329 C   0  0  0  0  0  0  0  0  0  0  0  0
    0.9239    1.9601    0.8028 O   0  0  0  0  0  0  0  0  0  0  0  0
   -0.6051    0.9144    2.0813 N   0  0  0  0  0  0  0  0  0  0  0  0
   -1.0697    0.0303    2.2406 H   0  0  0  0  0  0  0  0  0  0  0  0
   -0.7877    1.9853    3.0590 C   0  0  0  0  0  0  0  0  0  0  0  0
   -0.8908    2.9427    2.5438 H   0  0  0  0  0  0  0  0  0  0  0  0
   -1.6811    1.8011    3.6564 H   0  0  0  0  0  0  0  0  0  0  0  0
    0.0833    2.0341    3.7158 H   0  0  0  0  0  0  0  0  0  0  0  0
  5  6  2  0  0  0  0
  5  7  1  0  0  0  0
  2  3  1  0  0  0  0
  2  4  1  0  0  0  0
  2  5  1  0  0  0  0
  1  2  1  0  0  0  0
 16 17  2  0  0  0  0
 16 18  1  0  0  0  0
 14 15  1  0  0  0  0
 11 12  1  0  0  0  0
 11 13  1  0  0  0  0
 11 14  1  0  0  0  0
  9 10  1  0  0  0  0
  9 11  1  0  0  0  0
  9 16  1  0  0  0  0
  7  8  1  0  0  0  0
  7  9  1  0  0  0  0
 20 21  1  0  0  0  0
 20 22  1  0  0  0  0
 20 23  1  0  0  0  0
 18 19  1  0  0  0  0
 18 20  1  0  0  0  0
M  END
$$$$
default_name
  -OEChem-01062215323D

 23 22  0     1  0  0  0  0  0999 V2000
   -2.6721   -3.7279    0.7212 H   0  0  0  0  0  0  0  0  0  0  0  0
   -2.6561   -2.6819    0.4162 C   0  0  0  0  0  0  0  0  0  0  0  0
   -3.2401   -2.0889    1.1172 H   0  0  0  0  0  0  0  0  0  0  0  0
   -3.0671   -2.5859   -0.5858 H   0  0  0  0  0  0  0  0  0  0  0  0
   -1.2261   -2.1939    0.4202 C   0  0  0  0  0  0  0  0  0  0  0  0
   -0.3181   -2.9519    0.7312 O   0  0  0  0  0  0  0  0  0  0  0  0
   -1.0281   -0.9259    0.0662 N   0  0  0  0  0  0  0  0  0  0  0  0
   -1.8301   -0.3519   -0.1548 H   0  0  0  0  0  0  0  0  0  0  0  0
    0.2709   -0.2409    0.0912 C   0  0  1  0  0  0  0  0  0  0  0  0
    1.0248   -0.9318    0.4692 H   0  0  0  0  0  0  0  0  0  0  0  0
    0.6734    0.1675   -1.3318 C   0  0  0  0  0  0  0  0  0  0  0  0
    1.6830    0.5814   -1.3132 H   0  0  0  0  0  0  0  0  0  0  0  0
    0.6647   -0.7109   -1.9797 H   0  0  0  0  0  0  0  0  0  0  0  0
   -0.2104    1.1466   -1.8453 O   0  0  0  0  0  0  0  0  0  0  0  0
    0.1701    1.5003   -2.6565 H   0  0  0  0  0  0  0  0  0  0  0  0
    0.2231    0.9739    1.0329 C   0  0  0  0  0  0  0  0  0  0  0  0
    0.6960    2.0523    0.6723 O   0  0  0  0  0  0  0  0  0  0  0  0
   -0.3538    0.8103    2.2283 N   0  0  0  0  0  0  0  0  0  0  0  0
   -0.6292   -0.1318    2.4720 H   0  0  0  0  0  0  0  0  0  0  0  0
   -0.5015    1.8627    3.2317 C   0  0  0  0  0  0  0  0  0  0  0  0
   -0.8586    2.7790    2.7567 H   0  0  0  0  0  0  0  0  0  0  0  0
   -1.2134    1.5546    3.9980 H   0  0  0  0  0  0  0  0  0  0  0  0
    0.4659    2.0643    3.6963 H   0  0  0  0  0  0  0  0  0  0  0  0
  5  6  2  0  0  0  0
  5  7  1  0  0  0  0
  2  3  1  0  0  0  0
  2  4  1  0  0  0  0
  2  5  1  0  0  0  0
  1  2  1  0  0  0  0
 16 17  2  0  0  0  0
 16 18  1  0  0  0  0
 14 15  1  0  0  0  0
 11 12  1  0  0  0  0
 11 13  1  0  0  0  0
 11 14  1  0  0  0  0
  9 10  1  0  0  0  0
  9 11  1  0  0  0  0
  9 16  1  0  0  0  0
  7  8  1  0  0  0  0
  7  9  1  0  0  0  0
 20 21  1  0  0  0  0
 20 22  1  0  0  0  0
 20 23  1  0  0  0  0
 18 19  1  0  0  0  0
 18 20  1  0  0  0  0
M  END
$$$$
default_name
  -OEChem-01062215323D

 23 22  0     1  0  0  0  0  0999 V2000
   -2.6721   -3.7279    0.7212 H   0  0  0  0  0  0  0  0  0  0  0  0
   -2.6561   -2.6819    0.4162 C   0  0  0  0  0  0  0  0  0  0  0  0
   -3.2401   -2.0889    1.1172 H   0  0  0  0  0  0  0  0  0  0  0  0
   -3.0671   -2.5859   -0.5858 H   0  0  0  0  0  0  0  0  0  0  0  0
   -1.2261   -2.1939    0.4202 C   0  0  0  0  0  0  0  0  0  0  0  0
   -0.3181   -2.9519    0.7312 O   0  0  0  0  0  0  0  0  0  0  0  0
   -1.0281   -0.9259    0.0662 N   0  0  0  0  0  0  0  0  0  0  0  0
   -1.8301   -0.3519   -0.1548 H   0  0  0  0  0  0  0  0  0  0  0  0
    0.2709   -0.2409    0.0912 C   0  0  1  0  0  0  0  0  0  0  0  0
    1.0248   -0.9318    0.4692 H   0  0  0  0  0  0  0  0  0  0  0  0
    0.6734    0.1675   -1.3318 C   0  0  0  0  0  0  0  0  0  0  0  0
    1.6830    0.5814   -1.3132 H   0  0  0  0  0  0  0  0  0  0  0  0
    0.6647   -0.7109   -1.9797 H   0  0  0  0  0  0  0  0  0  0  0  0
   -0.2104    1.1466   -1.8453 O   0  0  0  0  0  0  0  0  0  0  0  0
    0.1701    1.5003   -2.6565 H   0  0  0  0  0  0  0  0  0  0  0  0
    0.2231    0.9739    1.0329 C   0  0  0  0  0  0  0  0  0  0  0  0
    0.4346    2.1042    0.5920 O   0  0  0  0  0  0  0  0  0  0  0  0
   -0.0644    0.7508    2.3198 N   0  0  0  0  0  0  0  0  0  0  0  0
   -0.1307   -0.2167    2.6069 H   0  0  0  0  0  0  0  0  0  0  0  0
   -0.1703    1.7910    3.3410 C   0  0  0  0  0  0  0  0  0  0  0  0
   -0.7581    2.6276    2.9571 H   0  0  0  0  0  0  0  0  0  0  0  0
   -0.6527    1.3934    4.2344 H   0  0  0  0  0  0  0  0  0  0  0  0
    0.8267    2.1540    3.5990 H   0  0  0  0  0  0  0  0  0  0  0  0
  5  6  2  0  0  0  0
  5  7  1  0  0  0  0
  2  3  1  0  0  0  0
  2  4  1  0  0  0  0
  2  5  1  0  0  0  0
  1  2  1  0  0  0  0
 16 17  2  0  0  0  0
 16 18  1  0  0  0  0
 14 15  1  0  0  0  0
 11 12  1  0  0  0  0
 11 13  1  0  0  0  0
 11 14  1  0  0  0  0
  9 10  1  0  0  0  0
  9 11  1  0  0  0  0
  9 16  1  0  0  0  0
  7  8  1  0  0  0  0
  7  9  1  0  0  0  0
 20 21  1  0  0  0  0
 20 22  1  0  0  0  0
 20 23  1  0  0  0  0
 18 19  1  0  0  0  0
 18 20  1  0  0  0  0
M  END
$$$$
default_name
  -OEChem-01062215323D

 23 22  0     1  0  0  0  0  0999 V2000
   -2.6721   -3.7279    0.7212 H   0  0  0  0  0  0  0  0  0  0  0  0
   -2.6561   -2.6819    0.4162 C   0  0  0  0  0  0  0  0  0  0  0  0
   -3.2401   -2.0889    1.1172 H   0  0  0  0  0  0  0  0  0  0  0  0
   -3.0671   -2.5859   -0.5858 H   0  0  0  0  0  0  0  0  0  0  0  0
   -1.2261   -2.1939    0.4202 C   0  0  0  0  0  0  0  0  0  0  0  0
   -0.3181   -2.9519    0.7312 O   0  0  0  0  0  0  0  0  0  0  0  0
   -1.0281   -0.9259    0.0662 N   0  0  0  0  0  0  0  0  0  0  0  0
   -1.8301   -0.3519   -0.1548 H   0  0  0  0  0  0  0  0  0  0  0  0
    0.2709   -0.2409    0.0912 C   0  0  1  0  0  0  0  0  0  0  0  0
    1.0248   -0.9318    0.4692 H   0  0  0  0  0  0  0  0  0  0  0  0
    0.6734    0.1675   -1.3318 C   0  0  0  0  0  0  0  0  0  0  0  0
    1.6830    0.5814   -1.3132 H   0  0  0  0  0  0  0  0  0  0  0  0
    0.6647   -0.7109   -1.9797 H   0  0  0  0  0  0  0  0  0  0  0  0
   -0.2104    1.1466   -1.8453 O   0  0  0  0  0  0  0  0  0  0  0  0
    0.1701    1.5003   -2.6565 H   0  0  0  0  0  0  0  0  0  0  0  0
    0.2231    0.9739    1.0329 C   0  0  0  0  0  0  0  0  0  0  0  0
    0.1574    2.1123    0.5676 O   0  0  0  0  0  0  0  0  0  0  0  0
    0.2432    0.7399    2.3495 N   0  0  0  0  0  0  0  0  0  0  0  0
    0.3918   -0.2187    2.6359 H   0  0  0  0  0  0  0  0  0  0  0  0
    0.1833    1.7751    3.3794 C   0  0  0  0  0  0  0  0  0  0  0  0
   -0.5960    2.4989    3.1313 H   0  0  0  0  0  0  0  0  0  0  0  0
   -0.0372    1.3285    4.3494 H   0  0  0  0  0  0  0  0  0  0  0  0
    1.1411    2.2970    3.4305 H   0  0  0  0  0  0  0  0  0  0  0  0
  5  6  2  0  0  0  0
  5  7  1  0  0  0  0
  2  3  1  0  0  0  0
  2  4  1  0  0  0  0
  2  5  1  0  0  0  0
  1  2  1  0  0  0  0
 16 17  2  0  0  0  0
 16 18  1  0  0  0  0
 14 15  1  0  0  0  0
 11 12  1  0  0  0  0
 11 13  1  0  0  0  0
 11 14  1  0  0  0  0
  9 10  1  0  0  0  0
  9 11  1  0  0  0  0
  9 16  1  0  0  0  0
  7  8  1  0  0  0  0
  7  9  1  0  0  0  0
 20 21  1  0  0  0  0
 20 22  1  0  0  0  0
 20 23  1  0  0  0  0
 18 19  1  0  0  0  0
 18 20  1  0  0  0  0
M  END
$$$$
default_name
  -OEChem-01062215323D

 23 22  0     1  0  0  0  0  0999 V2000
   -2.6721   -3.7279    0.7212 H   0  0  0  0  0  0  0  0  0  0  0  0
   -2.6561   -2.6819    0.4162 C   0  0  0  0  0  0  0  0  0  0  0  0
   -3.2401   -2.0889    1.1172 H   0  0  0  0  0  0  0  0  0  0  0  0
   -3.0671   -2.5859   -0.5858 H   0  0  0  0  0  0  0  0  0  0  0  0
   -1.2261   -2.1939    0.4202 C   0  0  0  0  0  0  0  0  0  0  0  0
   -0.3181   -2.9519    0.7312 O   0  0  0  0  0  0  0  0  0  0  0  0
   -1.0281   -0.9259    0.0662 N   0  0  0  0  0  0  0  0  0  0  0  0
   -1.8301   -0.3519   -0.1548 H   0  0  0  0  0  0  0  0  0  0  0  0
    0.2709   -0.2409    0.0912 C   0  0  1  0  0  0  0  0  0  0  0  0
    1.0248   -0.9318    0.4692 H   0  0  0  0  0  0  0  0  0  0  0  0
    0.6734    0.1675   -1.3318 C   0  0  0  0  0  0  0  0  0  0  0  0
    1.6830    0.5814   -1.3132 H   0  0  0  0  0  0  0  0  0  0  0  0
    0.6647   -0.7109   -1.9797 H   0  0  0  0  0  0  0  0  0  0  0  0
   -0.2104    1.1466   -1.8453 O   0  0  0  0  0  0  0  0  0  0  0  0
    0.1701    1.5003   -2.6565 H   0  0  0  0  0  0  0  0  0  0  0  0
    0.2231    0.9739    1.0329 C   0  0  0  0  0  0  0  0  0  0  0  0
   -0.1165    2.0759    0.6006 O   0  0  0  0  0  0  0  0  0  0  0  0
    0.5481    0.7783    2.3153 N   0  0  0  0  0  0  0  0  0  0  0  0
    0.9028   -0.1375    2.5571 H   0  0  0  0  0  0  0  0  0  0  0  0
    0.5352    1.8162    3.3444 C   0  0  0  0  0  0  0  0  0  0  0  0
   -0.3834    2.4017    3.2675 H   0  0  0  0  0  0  0  0  0  0  0  0
    0.5910    1.3643    4.3351 H   0  0  0  0  0  0  0  0  0  0  0  0
    1.3877    2.4836    3.2023 H   0  0  0  0  0  0  0  0  0  0  0  0
  5  6  2  0  0  0  0
  5  7  1  0  0  0  0
  2  3  1  0  0  0  0
  2  4  1  0  0  0  0
  2  5  1  0  0  0  0
  1  2  1  0  0  0  0
 16 17  2  0  0  0  0
 16 18  1  0  0  0  0
 14 15  1  0  0  0  0
 11 12  1  0  0  0  0
 11 13  1  0  0  0  0
 11 14  1  0  0  0  0
  9 10  1  0  0  0  0
  9 11  1  0  0  0  0
  9 16  1  0  0  0  0
  7  8  1  0  0  0  0
  7  9  1  0  0  0  0
 20 21  1  0  0  0  0
 20 22  1  0  0  0  0
 20 23  1  0  0  0  0
 18 19  1  0  0  0  0
 18 20  1  0  0  0  0
M  END
$$$$
default_name
  -OEChem-01062215323D

 23 22  0     1  0  0  0  0  0999 V2000
   -2.6721   -3.7279    0.7212 H   0  0  0  0  0  0  0  0  0  0  0  0
   -2.6561   -2.6819    0.4162 C   0  0  0  0  0  0  0  0  0  0  0  0
   -3.2401   -2.0889    1.1172 H   0  0  0  0  0  0  0  0  0  0  0  0
   -3.0671   -2.5859   -0.5858 H   0  0  0  0  0  0  0  0  0  0  0  0
   -1.2261   -2.1939    0.4202 C   0  0  0  0  0  0  0  0  0  0  0  0
   -0.3181   -2.9519    0.7312 O   0  0  0  0  0  0  0  0  0  0  0  0
   -1.0281   -0.9259    0.0662 N   0  0  0  0  0  0  0  0  0  0  0  0
   -1.8301   -0.3519   -0.1548 H   0  0  0  0  0  0  0  0  0  0  0  0
    0.2709   -0.2409    0.0912 C   0  0  1  0  0  0  0  0  0  0  0  0
    1.0248   -0.9318    0.4692 H   0  0  0  0  0  0  0  0  0  0  0  0
    0.6734    0.1675   -1.3318 C   0  0  0  0  0  0  0  0  0  0  0  0
    1.6830    0.5814   -1.3132 H   0  0  0  0  0  0  0  0  0  0  0  0
    0.6647   -0.7109   -1.9797 H   0  0  0  0  0  0  0  0  0  0  0  0
   -0.2104    1.1466   -1.8453 O   0  0  0  0  0  0  0  0  0  0  0  0
    0.1701    1.5003   -2.6565 H   0  0  0  0  0  0  0  0  0  0  0  0
    0.2231    0.9739    1.0329 C   0  0  0  0  0  0  0  0  0  0  0  0
   -0.3687    1.9977    0.6887 O   0  0  0  0  0  0  0  0  0  0  0  0
    0.8296    0.8635    2.2197 N   0  0  0  0  0  0  0  0  0  0  0  0
    1.3673    0.0213    2.3758 H   0  0  0  0  0  0  0  0  0  0  0  0
    0.8615    1.9113    3.2382 C   0  0  0  0  0  0  0  0  0  0  0  0
   -0.1349    2.3426    3.3564 H   0  0  0  0  0  0  0  0  0  0  0  0
    1.1893    1.4983    4.1926 H   0  0  0  0  0  0  0  0  0  0  0  0
    1.5497    2.7010    2.9300 H   0  0  0  0  0  0  0  0  0  0  0  0
  5  6  2  0  0  0  0
  5  7  1  0  0  0  0
  2  3  1  0  0  0  0
  2  4  1  0  0  0  0
  2  5  1  0  0  0  0
  1  2  1  0  0  0  0
 16 17  2  0  0  0  0
 16 18  1  0  0  0  0
 14 15  1  0  0  0  0
 11 12  1  0  0  0  0
 11 13  1  0  0  0  0
 11 14  1  0  0  0  0
  9 10  1  0  0  0  0
  9 11  1  0  0  0  0
  9 16  1  0  0  0  0
  7  8  1  0  0  0  0
  7  9  1  0  0  0  0
 20 21  1  0  0  0  0
 20 22  1  0  0  0  0
 20 23  1  0  0  0  0
 18 19  1  0  0  0  0
 18 20  1  0  0  0  0
M  END
$$$$
default_name
  -OEChem-01062215323D

 23 22  0     1  0  0  0  0  0999 V2000
   -2.6721   -3.7279    0.7212 H   0  0  0  0  0  0  0  0  0  0  0  0
   -2.6561   -2.6819    0.4162 C   0  0  0  0  0  0  0  0  0  0  0  0
   -3.2401   -2.0889    1.1172 H   0  0  0  0  0  0  0  0  0  0  0  0
   -3.0671   -2.5859   -0.5858 H   0  0  0  0  0  0  0  0  0  0  0  0
   -1.2261   -2.1939    0.4202 C   0  0  0  0  0  0  0  0  0  0  0  0
   -0.3181   -2.9519    0.7312 O   0  0  0  0  0  0  0  0  0  0  0  0
   -1.0281   -0.9259    0.0662 N   0  0  0  0  0  0  0  0  0  0  0  0
   -1.8301   -0.3519   -0.1548 H   0  0  0  0  0  0  0  0  0  0  0  0
    0.2709   -0.2409    0.0912 C   0  0  1  0  0  0  0  0  0  0  0  0
    1.0248   -0.9318    0.4692 H   0  0  0  0  0  0  0  0  0  0  0  0
    0.6734    0.1675   -1.3318 C   0  0  0  0  0  0  0  0  0  0  0  0
    1.6830    0.5814   -1.3132 H   0  0  0  0  0  0  0  0  0  0  0  0
    0.6647   -0.7109   -1.9797 H   0  0  0  0  0  0  0  0  0  0  0  0
   -0.2104    1.1466   -1.8453 O   0  0  0  0  0  0  0  0  0  0  0  0
    0.1701    1.5003   -2.6565 H   0  0  0  0  0  0  0  0  0  0  0  0
    0.2231    0.9739    1.0329 C   0  0  0  0  0  0  0  0  0  0  0  0
   -0.5818    1.8828    0.8261 O   0  0  0  0  0  0  0  0  0  0  0  0
    1.0684    0.9897    2.0691 N   0  0  0  0  0  0  0  0  0  0  0  0
    1.7539    0.2469    2.1045 H   0  0  0  0  0  0  0  0  0  0  0  0
    1.1399    2.0540    3.0682 C   0  0  0  0  0  0  0  0  0  0  0  0
    0.1328    2.3256    3.3919 H   0  0  0  0  0  0  0  0  0  0  0  0
    1.7169    1.7214    3.9316 H   0  0  0  0  0  0  0  0  0  0  0  0
    1.6160    2.9346    2.6321 H   0  0  0  0  0  0  0  0  0  0  0  0
  5  6  2  0  0  0  0
  5  7  1  0  0  0  0
  2  3  1  0  0  0  0
  2  4  1  0  0  0  0
  2  5  1  0  0  0  0
  1  2  1  0  0  0  0
 16 17  2  0  0  0  0
 16 18  1  0  0  0  0
 14 15  1  0  0  0  0
 11 12  1  0  0  0  0
 11 13  1  0  0  0  0
 11 14  1  0  0  0  0
  9 10  1  0  0  0  0
  9 11  1  0  0  0  0
  9 16  1  0  0  0  0
  7  8  1  0  0  0  0
  7  9  1  0  0  0  0
 20 21  1  0  0  0  0
 20 22  1  0  0  0  0
 20 23  1  0  0  0  0
 18 19  1  0  0  0  0
 18 20  1  0  0  0  0
M  END
$$$$
default_name
  -OEChem-01062215323D

 23 22  0     1  0  0  0  0  0999 V2000
   -2.6721   -3.7279    0.7212 H   0  0  0  0  0  0  0  0  0  0  0  0
   -2.6561   -2.6819    0.4162 C   0  0  0  0  0  0  0  0  0  0  0  0
   -3.2401   -2.0889    1.1172 H   0  0  0  0  0  0  0  0  0  0  0  0
   -3.0671   -2.5859   -0.5858 H   0  0  0  0  0  0  0  0  0  0  0  0
   -1.2261   -2.1939    0.4202 C   0  0  0  0  0  0  0  0  0  0  0  0
   -0.3181   -2.9519    0.7312 O   0  0  0  0  0  0  0  0  0  0  0  0
   -1.0281   -0.9259    0.0662 N   0  0  0  0  0  0  0  0  0  0  0  0
   -1.8301   -0.3519   -0.1548 H   0  0  0  0  0  0  0  0  0  0  0  0
    0.2709   -0.2409    0.0912 C   0  0  1  0  0  0  0  0  0  0  0  0
    1.0248   -0.9318    0.4692 H   0  0  0  0  0  0  0  0  0  0  0  0
    0.6734    0.1675   -1.3318 C   0  0  0  0  0  0  0  0  0  0  0  0
    1.6830    0.5814   -1.3132 H   0  0  0  0  0  0  0  0  0  0  0  0
    0.6647   -0.7109   -1.9797 H   0  0  0  0  0  0  0  0  0  0  0  0
   -0.2104    1.1466   -1.8453 O   0  0  0  0  0  0  0  0  0  0  0  0
    0.1701    1.5003   -2.6565 H   0  0  0  0  0  0  0  0  0  0  0  0
    0.2231    0.9739    1.0329 C   0  0  0  0  0  0  0  0  0  0  0  0
   -0.7414    1.7392    1.0032 O   0  0  0  0  0  0  0  0  0  0  0  0
    1.2483    1.1482    1.8738 N   0  0  0  0  0  0  0  0  0  0  0  0
    2.0360    0.5238    1.7616 H   0  0  0  0  0  0  0  0  0  0  0  0
    1.3514    2.2346    2.8460 C   0  0  0  0  0  0  0  0  0  0  0  0
    0.4013    2.3519    3.3715 H   0  0  0  0  0  0  0  0  0  0  0  0
    2.1377    2.0184    3.5698 H   0  0  0  0  0  0  0  0  0  0  0  0
    1.5821    3.1683    2.3289 H   0  0  0  0  0  0  0  0  0  0  0  0
  5  6  2  0  0  0  0
  5  7  1  0  0  0  0
  2  3  1  0  0  0  0
  2  4  1  0  0  0  0
  2  5  1  0  0  0  0
  1  2  1  0  0  0  0
 16 17  2  0  0  0  0
 16 18  1  0  0  0  0
 14 15  1  0  0  0  0
 11 12  1  0  0  0  0
 11 13  1  0  0  0  0
 11 14  1  0  0  0  0
  9 10  1  0  0  0  0
  9 11  1  0  0  0  0
  9 16  1  0  0  0  0
  7  8  1  0  0  0  0
  7  9  1  0  0  0  0
 20 21  1  0  0  0  0
 20 22  1  0  0  0  0
 20 23  1  0  0  0  0
 18 19  1  0  0  0  0
 18 20  1  0  0  0  0
M  END
$$$$
default_name
  -OEChem-01062215323D

 23 22  0     1  0  0  0  0  0999 V2000
   -2.6721   -3.7279    0.7212 H   0  0  0  0  0  0  0  0  0  0  0  0
   -2.6561   -2.6819    0.4162 C   0  0  0  0  0  0  0  0  0  0  0  0
   -3.2401   -2.0889    1.1172 H   0  0  0  0  0  0  0  0  0  0  0  0
   -3.0671   -2.5859   -0.5858 H   0  0  0  0  0  0  0  0  0  0  0  0
   -1.2261   -2.1939    0.4202 C   0  0  0  0  0  0  0  0  0  0  0  0
   -0.3181   -2.9519    0.7312 O   0  0  0  0  0  0  0  0  0  0  0  0
   -1.0281   -0.9259    0.0662 N   0  0  0  0  0  0  0  0  0  0  0  0
   -1.8301   -0.3519   -0.1548 H   0  0  0  0  0  0  0  0  0  0  0  0
    0.2709   -0.2409    0.0912 C   0  0  1  0  0  0  0  0  0  0  0  0
    1.0248   -0.9318    0.4692 H   0  0  0  0  0  0  0  0  0  0  0  0
    0.6734    0.1675   -1.3318 C   0  0  0  0  0  0  0  0  0  0  0  0
    1.6830    0.5814   -1.3132 H   0  0  0  0  0  0  0  0  0  0  0  0
    0.6647   -0.7109   -1.9797 H   0  0  0  0  0  0  0  0  0  0  0  0
   -0.2104    1.1466   -1.8453 O   0  0  0  0  0  0  0  0  0  0  0  0
    0.1701    1.5003   -2.6565 H   0  0  0  0  0  0  0  0  0  0  0  0
    0.2231    0.9739    1.0329 C   0  0  0  0  0  0  0  0  0  0  0  0
   -0.8365    1.5766    1.2081 O   0  0  0  0  0  0  0  0  0  0  0  0
    1.3570    1.3282    1.6471 N   0  0  0  0  0  0  0  0  0  0  0  0
    2.1945    0.8333    1.3704 H   0  0  0  0  0  0  0  0  0  0  0  0
    1.4816    2.4408    2.5866 C   0  0  0  0  0  0  0  0  0  0  0  0
    0.6523    2.4197    3.2968 H   0  0  0  0  0  0  0  0  0  0  0  0
    2.4231    2.3691    3.1319 H   0  0  0  0  0  0  0  0  0  0  0  0
    1.4503    3.3862    2.0411 H   0  0  0  0  0  0  0  0  0  0  0  0
  5  6  2  0  0  0  0
  5  7  1  0  0  0  0
  2  3  1  0  0  0  0
  2  4  1  0  0  0  0
  2  5  1  0  0  0  0
  1  2  1  0  0  0  0
 16 17  2  0  0  0  0
 16 18  1  0  0  0  0
 14 15  1  0  0  0  0
 11 12  1  0  0  0  0
 11 13  1  0  0  0  0
 11 14  1  0  0  0  0
  9 10  1  0  0  0  0
  9 11  1  0  0  0  0
  9 16  1  0  0  0  0
  7  8  1  0  0  0  0
  7  9  1  0  0  0  0
 20 21  1  0  0  0  0
 20 22  1  0  0  0  0
 20 23  1  0  0  0  0
 18 19  1  0  0  0  0
 18 20  1  0  0  0  0
M  END
$$$$
default_name
  -OEChem-01062215323D

 23 22  0     1  0  0  0  0  0999 V2000
   -2.6721   -3.7279    0.7212 H   0  0  0  0  0  0  0  0  0  0  0  0
   -2.6561   -2.6819    0.4162 C   0  0  0  0  0  0  0  0  0  0  0  0
   -3.2401   -2.0889    1.1172 H   0  0  0  0  0  0  0  0  0  0  0  0
   -3.0671   -2.5859   -0.5858 H   0  0  0  0  0  0  0  0  0  0  0  0
   -1.2261   -2.1939    0.4202 C   0  0  0  0  0  0  0  0  0  0  0  0
   -0.3181   -2.9519    0.7312 O   0  0  0  0  0  0  0  0  0  0  0  0
   -1.0281   -0.9259    0.0662 N   0  0  0  0  0  0  0  0  0  0  0  0
   -1.8301   -0.3519   -0.1548 H   0  0  0  0  0  0  0  0  0  0  0  0
    0.2709   -0.2409    0.0912 C   0  0  1  0  0  0  0  0  0  0  0  0
    1.0248   -0.9318    0.4692 H   0  0  0  0  0  0  0  0  0  0  0  0
    0.6734    0.1675   -1.3318 C   0  0  0  0  0  0  0  0  0  0  0  0
    1.6830    0.5814   -1.3132 H   0  0  0  0  0  0  0  0  0  0  0  0
    0.6647   -0.7109   -1.9797 H   0  0  0  0  0  0  0  0  0  0  0  0
   -0.2104    1.1466   -1.8453 O   0  0  0  0  0  0  0  0  0  0  0  0
    0.1701    1.5003   -2.6565 H   0  0  0  0  0  0  0  0  0  0  0  0
    0.2231    0.9739    1.0329 C   0  0  0  0  0  0  0  0  0  0  0  0
   -0.8608    1.4061    1.4268 O   0  0  0  0  0  0  0  0  0  0  0  0
    1.3871    1.5175    1.4044 N   0  0  0  0  0  0  0  0  0  0  0  0
    2.2186    1.1542    0.9577 H   0  0  0  0  0  0  0  0  0  0  0  0
    1.5217    2.6586    2.3078 C   0  0  0  0  0  0  0  0  0  0  0  0
    0.8687    2.5244    3.1728 H   0  0  0  0  0  0  0  0  0  0  0  0
    2.5537    2.7496    2.6477 H   0  0  0  0  0  0  0  0  0  0  0  0
    1.2296    3.5736    1.7882 H   0  0  0  0  0  0  0  0  0  0  0  0
  5  6  2  0  0  0  0
  5  7  1  0  0  0  0
  2  3  1  0  0  0  0
  2  4  1  0  0  0  0
  2  5  1  0  0  0  0
  1  2  1  0  0  0  0
 16 17  2  0  0  0  0
 16 18  1  0  0  0  0
 14 15  1  0  0  0  0
 11 12  1  0  0  0  0
 11 13  1  0  0  0  0
 11 14  1  0  0  0  0
  9 10  1  0  0  0  0
  9 11  1  0  0  0  0
  9 16  1  0  0  0  0
  7  8  1  0  0  0  0
  7  9  1  0  0  0  0
 20 21  1  0  0  0  0
 20 22  1  0  0  0  0
 20 23  1  0  0  0  0
 18 19  1  0  0  0  0
 18 20  1  0  0  0  0
M  END
$$$$
default_name
  -OEChem-01062215323D

 23 22  0     1  0  0  0  0  0999 V2000
   -2.6721   -3.7279    0.7212 H   0  0  0  0  0  0  0  0  0  0  0  0
   -2.6561   -2.6819    0.4162 C   0  0  0  0  0  0  0  0  0  0  0  0
   -3.2401   -2.0889    1.1172 H   0  0  0  0  0  0  0  0  0  0  0  0
   -3.0671   -2.5859   -0.5858 H   0  0  0  0  0  0  0  0  0  0  0  0
   -1.2261   -2.1939    0.4202 C   0  0  0  0  0  0  0  0  0  0  0  0
   -0.3181   -2.9519    0.7312 O   0  0  0  0  0  0  0  0  0  0  0  0
   -1.0281   -0.9259    0.0662 N   0  0  0  0  0  0  0  0  0  0  0  0
   -1.8301   -0.3519   -0.1548 H   0  0  0  0  0  0  0  0  0  0  0  0
    0.2709   -0.2409    0.0912 C   0  0  1  0  0  0  0  0  0  0  0  0
    1.0583   -0.9859    0.2074 H   0  0  0  0  0  0  0  0  0  0  0  0
    0.5018    0.4894   -1.2381 C   0  0  0  0  0  0  0  0  0  0  0  0
    1.5102    0.9066   -1.2466 H   0  0  0  0  0  0  0  0  0  0  0  0
    0.4062   -0.2176   -2.0642 H   0  0  0  0  0  0  0  0  0  0  0  0
   -0.4281    1.5434   -1.4035 O   0  0  0  0  0  0  0  0  0  0  0  0
   -0.1454    2.0803   -2.1518 H   0  0  0  0  0  0  0  0  0  0  0  0
    0.3493    0.7253    1.2849 C   0  0  0  0  0  0  0  0  0  0  0  0
   -0.6019    0.8248    2.0609 O   0  0  0  0  0  0  0  0  0  0  0  0
    1.4773    1.4261    1.4433 N   0  0  0  0  0  0  0  0  0  0  0  0
    2.1653    1.3478    0.7061 H   0  0  0  0  0  0  0  0  0  0  0  0
    1.7249    2.3691    2.5321 C   0  0  0  0  0  0  0  0  0  0  0  0
    1.4117    1.9287    3.4811 H   0  0  0  0  0  0  0  0  0  0  0  0
    2.7860    2.6146    2.5832 H   0  0  0  0  0  0  0  0  0  0  0  0
    1.1498    3.2820    2.3640 H   0  0  0  0  0  0  0  0  0  0  0  0
  5  6  2  0  0  0  0
  5  7  1  0  0  0  0
  2  3  1  0  0  0  0
  2  4  1  0  0  0  0
  2  5  1  0  0  0  0
  1  2  1  0  0  0  0
 16 17  2  0  0  0  0
 16 18  1  0  0  0  0
 14 15  1  0  0  0  0
 11 12  1  0  0  0  0
 11 13  1  0  0  0  0
 11 14  1  0  0  0  0
  9 10  1  0  0  0  0
  9 11  1  0  0  0  0
  9 16  1  0  0  0  0
  7  8  1  0  0  0  0
  7  9  1  0  0  0  0
 20 21  1  0  0  0  0
 20 22  1  0  0  0  0
 20 23  1  0  0  0  0
 18 19  1  0  0  0  0
 18 20  1  0  0  0  0
M  END
$$$$
default_name
  -OEChem-01062215323D

 23 22  0     1  0  0  0  0  0999 V2000
   -2.6721   -3.7279    0.7212 H   0  0  0  0  0  0  0  0  0  0  0  0
   -2.6561   -2.6819    0.4162 C   0  0  0  0  0  0  0  0  0  0  0  0
   -3.2401   -2.0889    1.1172 H   0  0  0  0  0  0  0  0  0  0  0  0
   -3.0671   -2.5859   -0.5858 H   0  0  0  0  0  0  0  0  0  0  0  0
   -1.2261   -2.1939    0.4202 C   0  0  0  0  0  0  0  0  0  0  0  0
   -0.3181   -2.9519    0.7312 O   0  0  0  0  0  0  0  0  0  0  0  0
   -1.0281   -0.9259    0.0662 N   0  0  0  0  0  0  0  0  0  0  0  0
   -1.8301   -0.3519   -0.1548 H   0  0  0  0  0  0  0  0  0  0  0  0
    0.2709   -0.2409    0.0912 C   0  0  1  0  0  0  0  0  0  0  0  0
    1.0583   -0.9859    0.2074 H   0  0  0  0  0  0  0  0  0  0  0  0
    0.5018    0.4894   -1.2381 C   0  0  0  0  0  0  0  0  0  0  0  0
    1.5102    0.9066   -1.2466 H   0  0  0  0  0  0  0  0  0  0  0  0
    0.4062   -0.2176   -2.0642 H   0  0  0  0  0  0  0  0  0  0  0  0
   -0.4281    1.5434   -1.4035 O   0  0  0  0  0  0  0  0  0  0  0  0
   -0.1454    2.0803   -2.1518 H   0  0  0  0  0  0  0  0  0  0  0  0
    0.3493    0.7253    1.2849 C   0  0  0  0  0  0  0  0  0  0  0  0
   -0.4622    0.6332    2.2068 O   0  0  0  0  0  0  0  0  0  0  0  0
    1.3249    1.6401    1.2801 N   0  0  0  0  0  0  0  0  0  0  0  0
    1.8842    1.6998    0.4396 H   0  0  0  0  0  0  0  0  0  0  0  0
    1.5541    2.6174    2.3424 C   0  0  0  0  0  0  0  0  0  0  0  0
    1.4952    2.1260    3.3160 H   0  0  0  0  0  0  0  0  0  0  0  0
    2.5385    3.0724    2.2290 H   0  0  0  0  0  0  0  0  0  0  0  0
    0.7886    3.3947    2.2965 H   0  0  0  0  0  0  0  0  0  0  0  0
  5  6  2  0  0  0  0
  5  7  1  0  0  0  0
  2  3  1  0  0  0  0
  2  4  1  0  0  0  0
  2  5  1  0  0  0  0
  1  2  1  0  0  0  0
 16 17  2  0  0  0  0
 16 18  1  0  0  0  0
 14 15  1  0  0  0  0
 11 12  1  0  0  0  0
 11 13  1  0  0  0  0
 11 14  1  0  0  0  0
  9 10  1  0  0  0  0
  9 11  1  0  0  0  0
  9 16  1  0  0  0  0
  7  8  1  0  0  0  0
  7  9  1  0  0  0  0
 20 21  1  0  0  0  0
 20 22  1  0  0  0  0
 20 23  1  0  0  0  0
 18 19  1  0  0  0  0
 18 20  1  0  0  0  0
M  END
$$$$
default_name
  -OEChem-01062215323D

 23 22  0     1  0  0  0  0  0999 V2000
   -2.6721   -3.7279    0.7212 H   0  0  0  0  0  0  0  0  0  0  0  0
   -2.6561   -2.6819    0.4162 C   0  0  0  0  0  0  0  0  0  0  0  0
   -3.2401   -2.0889    1.1172 H   0  0  0  0  0  0  0  0  0  0  0  0
   -3.0671   -2.5859   -0.5858 H   0  0  0  0  0  0  0  0  0  0  0  0
   -1.2261   -2.1939    0.4202 C   0  0  0  0  0  0  0  0  0  0  0  0
   -0.3181   -2.9519    0.7312 O   0  0  0  0  0  0  0  0  0  0  0  0
   -1.0281   -0.9259    0.0662 N   0  0  0  0  0  0  0  0  0  0  0  0
   -1.8301   -0.3519   -0.1548 H   0  0  0  0  0  0  0  0  0  0  0  0
    0.2709   -0.2409    0.0912 C   0  0  1  0  0  0  0  0  0  0  0  0
    1.0583   -0.9859    0.2074 H   0  0  0  0  0  0  0  0  0  0  0  0
    0.5018    0.4894   -1.2381 C   0  0  0  0  0  0  0  0  0  0  0  0
    1.5102    0.9066   -1.2466 H   0  0  0  0  0  0  0  0  0  0  0  0
    0.4062   -0.2176   -2.0642 H   0  0  0  0  0  0  0  0  0  0  0  0
   -0.4281    1.5434   -1.4035 O   0  0  0  0  0  0  0  0  0  0  0  0
   -0.1454    2.0803   -2.1518 H   0  0  0  0  0  0  0  0  0  0  0  0
    0.3493    0.7253    1.2849 C   0  0  0  0  0  0  0  0  0  0  0  0
   -0.2650    0.4744    2.3224 O   0  0  0  0  0  0  0  0  0  0  0  0
    1.1082    1.8183    1.1501 N   0  0  0  0  0  0  0  0  0  0  0  0
    1.4987    1.9869    0.2326 H   0  0  0  0  0  0  0  0  0  0  0  0
    1.3085    2.8254    2.1902 C   0  0  0  0  0  0  0  0  0  0  0  0
    1.5094    2.3356    3.1454 H   0  0  0  0  0  0  0  0  0  0  0  0
    2.1499    3.4694    1.9331 H   0  0  0  0  0  0  0  0  0  0  0  0
    0.4061    3.4319    2.2916 H   0  0  0  0  0  0  0  0  0  0  0  0
  5  6  2  0  0  0  0
  5  7  1  0  0  0  0
  2  3  1  0  0  0  0
  2  4  1  0  0  0  0
  2  5  1  0  0  0  0
  1  2  1  0  0  0  0
 16 17  2  0  0  0  0
 16 18  1  0  0  0  0
 14 15  1  0  0  0  0
 11 12  1  0  0  0  0
 11 13  1  0  0  0  0
 11 14  1  0  0  0  0
  9 10  1  0  0  0  0
  9 11  1  0  0  0  0
  9 16  1  0  0  0  0
  7  8  1  0  0  0  0
  7  9  1  0  0  0  0
 20 21  1  0  0  0  0
 20 22  1  0  0  0  0
 20 23  1  0  0  0  0
 18 19  1  0  0  0  0
 18 20  1  0  0  0  0
M  END
$$$$
default_name
  -OEChem-01062215323D

 23 22  0     1  0  0  0  0  0999 V2000
   -2.6721   -3.7279    0.7212 H   0  0  0  0  0  0  0  0  0  0  0  0
   -2.6561   -2.6819    0.4162 C   0  0  0  0  0  0  0  0  0  0  0  0
   -3.2401   -2.0889    1.1172 H   0  0  0  0  0  0  0  0  0  0  0  0
   -3.0671   -2.5859   -0.5858 H   0  0  0  0  0  0  0  0  0  0  0  0
   -1.2261   -2.1939    0.4202 C   0  0  0  0  0  0  0  0  0  0  0  0
   -0.3181   -2.9519    0.7312 O   0  0  0  0  0  0  0  0  0  0  0  0
   -1.0281   -0.9259    0.0662 N   0  0  0  0  0  0  0  0  0  0  0  0
   -1.8301   -0.3519   -0.1548 H   0  0  0  0  0  0  0  0  0  0  0  0
    0.2709   -0.2409    0.0912 C   0  0  1  0  0  0  0  0  0  0  0  0
    1.0583   -0.9859    0.2074 H   0  0  0  0  0  0  0  0  0  0  0  0
    0.5018    0.4894   -1.2381 C   0  0  0  0  0  0  0  0  0  0  0  0
    1.5102    0.9066   -1.2466 H   0  0  0  0  0  0  0  0  0  0  0  0
    0.4062   -0.2176   -2.0642 H   0  0  0  0  0  0  0  0  0  0  0  0
   -0.4281    1.5434   -1.4035 O   0  0  0  0  0  0  0  0  0  0  0  0
   -0.1454    2.0803   -2.1518 H   0  0  0  0  0  0  0  0  0  0  0  0
    0.3493    0.7253    1.2849 C   0  0  0  0  0  0  0  0  0  0  0  0
   -0.0239    0.3590    2.4000 O   0  0  0  0  0  0  0  0  0  0  0  0
    0.8419    1.9486    1.0622 N   0  0  0  0  0  0  0  0  0  0  0  0
    1.0350    2.1895    0.0991 H   0  0  0  0  0  0  0  0  0  0  0  0
    1.0047    2.9789    2.0859 C   0  0  0  0  0  0  0  0  0  0  0  0
    1.4532    2.5431    2.9812 H   0  0  0  0  0  0  0  0  0  0  0  0
    1.6467    3.7788    1.7158 H   0  0  0  0  0  0  0  0  0  0  0  0
    0.0284    3.3910    2.3495 H   0  0  0  0  0  0  0  0  0  0  0  0
  5  6  2  0  0  0  0
  5  7  1  0  0  0  0
  2  3  1  0  0  0  0
  2  4  1  0  0  0  0
  2  5  1  0  0  0  0
  1  2  1  0  0  0  0
 16 17  2  0  0  0  0
 16 18  1  0  0  0  0
 14 15  1  0  0  0  0
 11 12  1  0  0  0  0
 11 13  1  0  0  0  0
 11 14  1  0  0  0  0
  9 10  1  0  0  0  0
  9 11  1  0  0  0  0
  9 16  1  0  0  0  0
  7  8  1  0  0  0  0
  7  9  1  0  0  0  0
 20 21  1  0  0  0  0
 20 22  1  0  0  0  0
 20 23  1  0  0  0  0
 18 19  1  0  0  0  0
 18 20  1  0  0  0  0
M  END
$$$$
default_name
  -OEChem-01062215323D

 23 22  0     1  0  0  0  0  0999 V2000
   -2.6721   -3.7279    0.7212 H   0  0  0  0  0  0  0  0  0  0  0  0
   -2.6561   -2.6819    0.4162 C   0  0  0  0  0  0  0  0  0  0  0  0
   -3.2401   -2.0889    1.1172 H   0  0  0  0  0  0  0  0  0  0  0  0
   -3.0671   -2.5859   -0.5858 H   0  0  0  0  0  0  0  0  0  0  0  0
   -1.2261   -2.1939    0.4202 C   0  0  0  0  0  0  0  0  0  0  0  0
   -0.3181   -2.9519    0.7312 O   0  0  0  0  0  0  0  0  0  0  0  0
   -1.0281   -0.9259    0.0662 N   0  0  0  0  0  0  0  0  0  0  0  0
   -1.8301   -0.3519   -0.1548 H   0  0  0  0  0  0  0  0  0  0  0  0
    0.2709   -0.2409    0.0912 C   0  0  1  0  0  0  0  0  0  0  0  0
    1.0583   -0.9859    0.2074 H   0  0  0  0  0  0  0  0  0  0  0  0
    0.5018    0.4894   -1.2381 C   0  0  0  0  0  0  0  0  0  0  0  0
    1.5102    0.9066   -1.2466 H   0  0  0  0  0  0  0  0  0  0  0  0
    0.4062   -0.2176   -2.0642 H   0  0  0  0  0  0  0  0  0  0  0  0
   -0.4281    1.5434   -1.4035 O   0  0  0  0  0  0  0  0  0  0  0  0
   -0.1454    2.0803   -2.1518 H   0  0  0  0  0  0  0  0  0  0  0  0
    0.3493    0.7253    1.2849 C   0  0  0  0  0  0  0  0  0  0  0  0
    0.2448    0.2949    2.4341 O   0  0  0  0  0  0  0  0  0  0  0  0
    0.5442    2.0221    1.0222 N   0  0  0  0  0  0  0  0  0  0  0  0
    0.5247    2.2938    0.0482 H   0  0  0  0  0  0  0  0  0  0  0  0
    0.6634    3.0676    2.0366 C   0  0  0  0  0  0  0  0  0  0  0  0
    1.3306    2.7344    2.8344 H   0  0  0  0  0  0  0  0  0  0  0  0
    1.0630    3.9794    1.5918 H   0  0  0  0  0  0  0  0  0  0  0  0
   -0.3188    3.2748    2.4664 H   0  0  0  0  0  0  0  0  0  0  0  0
  5  6  2  0  0  0  0
  5  7  1  0  0  0  0
  2  3  1  0  0  0  0
  2  4  1  0  0  0  0
  2  5  1  0  0  0  0
  1  2  1  0  0  0  0
 16 17  2  0  0  0  0
 16 18  1  0  0  0  0
 14 15  1  0  0  0  0
 11 12  1  0  0  0  0
 11 13  1  0  0  0  0
 11 14  1  0  0  0  0
  9 10  1  0  0  0  0
  9 11  1  0  0  0  0
  9 16  1  0  0  0  0
  7  8  1  0  0  0  0
  7  9  1  0  0  0  0
 20 21  1  0  0  0  0
 20 22  1  0  0  0  0
 20 23  1  0  0  0  0
 18 19  1  0  0  0  0
 18 20  1  0  0  0  0
M  END
$$$$
default_name
  -OEChem-01062215323D

 23 22  0     1  0  0  0  0  0999 V2000
   -2.6721   -3.7279    0.7212 H   0  0  0  0  0  0  0  0  0  0  0  0
   -2.6561   -2.6819    0.4162 C   0  0  0  0  0  0  0  0  0  0  0  0
   -3.2401   -2.0889    1.1172 H   0  0  0  0  0  0  0  0  0  0  0  0
   -3.0671   -2.5859   -0.5858 H   0  0  0  0  0  0  0  0  0  0  0  0
   -1.2261   -2.1939    0.4202 C   0  0  0  0  0  0  0  0  0  0  0  0
   -0.3181   -2.9519    0.7312 O   0  0  0  0  0  0  0  0  0  0  0  0
   -1.0281   -0.9259    0.0662 N   0  0  0  0  0  0  0  0  0  0  0  0
   -1.8301   -0.3519   -0.1548 H   0  0  0  0  0  0  0  0  0  0  0  0
    0.2709   -0.2409    0.0912 C   0  0  1  0  0  0  0  0  0  0  0  0
    1.0583   -0.9859    0.2074 H   0  0  0  0  0  0  0  0  0  0  0  0
    0.5018    0.4894   -1.2381 C   0  0  0  0  0  0  0  0  0  0  0  0
    1.5102    0.9066   -1.2466 H   0  0  0  0  0  0  0  0  0  0  0  0
    0.4062   -0.2176   -2.0642 H   0  0  0  0  0  0  0  0  0  0  0  0
   -0.4281    1.5434   -1.4035 O   0  0  0  0  0  0  0  0  0  0  0  0
   -0.1454    2.0803   -2.1518 H   0  0  0  0  0  0  0  0  0  0  0  0
    0.3493    0.7253    1.2849 C   0  0  0  0  0  0  0  0  0  0  0  0
    0.5228    0.2866    2.4226 O   0  0  0  0  0  0  0  0  0  0  0  0
    0.2353    2.0338    1.0330 N   0  0  0  0  0  0  0  0  0  0  0  0
    0.0025    2.2926    0.0835 H   0  0  0  0  0  0  0  0  0  0  0  0
    0.3079    3.0853    2.0456 C   0  0  0  0  0  0  0  0  0  0  0  0
    1.1498    2.8965    2.7151 H   0  0  0  0  0  0  0  0  0  0  0  0
    0.4388    4.0575    1.5696 H   0  0  0  0  0  0  0  0  0  0  0  0
   -0.6118    3.0913    2.6341 H   0  0  0  0  0  0  0  0  0  0  0  0
  5  6  2  0  0  0  0
  5  7  1  0  0  0  0
  2  3  1  0  0  0  0
  2  4  1  0  0  0  0
  2  5  1  0  0  0  0
  1  2  1  0  0  0  0
 16 17  2  0  0  0  0
 16 18  1  0  0  0  0
 14 15  1  0  0  0  0
 11 12  1  0  0  0  0
 11 13  1  0  0  0  0
 11 14  1  0  0  0  0
  9 10  1  0  0  0  0
  9 11  1  0  0  0  0
  9 16  1  0  0  0  0
  7  8  1  0  0  0  0
  7  9  1  0  0  0  0
 20 21  1  0  0  0  0
 20 22  1  0  0  0  0
 20 23  1  0  0  0  0
 18 19  1  0  0  0  0
 18 20  1  0  0  0  0
M  END
$$$$
default_name
  -OEChem-01062215323D

 23 22  0     1  0  0  0  0  0999 V2000
   -2.6721   -3.7279    0.7212 H   0  0  0  0  0  0  0  0  0  0  0  0
   -2.6561   -2.6819    0.4162 C   0  0  0  0  0  0  0  0  0  0  0  0
   -3.2401   -2.0889    1.1172 H   0  0  0  0  0  0  0  0  0  0  0  0
   -3.0671   -2.5859   -0.5858 H   0  0  0  0  0  0  0  0  0  0  0  0
   -1.2261   -2.1939    0.4202 C   0  0  0  0  0  0  0  0  0  0  0  0
   -0.3181   -2.9519    0.7312 O   0  0  0  0  0  0  0  0  0  0  0  0
   -1.0281   -0.9259    0.0662 N   0  0  0  0  0  0  0  0  0  0  0  0
   -1.8301   -0.3519   -0.1548 H   0  0  0  0  0  0  0  0  0  0  0  0
    0.2709   -0.2409    0.0912 C   0  0  1  0  0  0  0  0  0  0  0  0
    1.0583   -0.9859    0.2074 H   0  0  0  0  0  0  0  0  0  0  0  0
    0.5018    0.4894   -1.2381 C   0  0  0  0  0  0  0  0  0  0  0  0
    1.5102    0.9066   -1.2466 H   0  0  0  0  0  0  0  0  0  0  0  0
    0.4062   -0.2176   -2.0642 H   0  0  0  0  0  0  0  0  0  0  0  0
   -0.4281    1.5434   -1.4035 O   0  0  0  0  0  0  0  0  0  0  0  0
   -0.1454    2.0803   -2.1518 H   0  0  0  0  0  0  0  0  0  0  0  0
    0.3493    0.7253    1.2849 C   0  0  0  0  0  0  0  0  0  0  0  0
    0.7911    0.3346    2.3661 O   0  0  0  0  0  0  0  0  0  0  0  0
   -0.0636    1.9829    1.0938 N   0  0  0  0  0  0  0  0  0  0  0  0
   -0.4959    2.1861    0.2024 H   0  0  0  0  0  0  0  0  0  0  0  0
   -0.0375    3.0309    2.1124 C   0  0  0  0  0  0  0  0  0  0  0  0
    0.9233    3.0183    2.6314 H   0  0  0  0  0  0  0  0  0  0  0  0
   -0.1834    4.0079    1.6507 H   0  0  0  0  0  0  0  0  0  0  0  0
   -0.8307    2.8529    2.8414 H   0  0  0  0  0  0  0  0  0  0  0  0
  5  6  2  0  0  0  0
  5  7  1  0  0  0  0
  2  3  1  0  0  0  0
  2  4  1  0  0  0  0
  2  5  1  0  0  0  0
  1  2  1  0  0  0  0
 16 17  2  0  0  0  0
 16 18  1  0  0  0  0
 14 15  1  0  0  0  0
 11 12  1  0  0  0  0
 11 13  1  0  0  0  0
 11 14  1  0  0  0  0
  9 10  1  0  0  0  0
  9 11  1  0  0  0  0
  9 16  1  0  0  0  0
  7  8  1  0  0  0  0
  7  9  1  0  0  0  0
 20 21  1  0  0  0  0
 20 22  1  0  0  0  0
 20 23  1  0  0  0  0
 18 19  1  0  0  0  0
 18 20  1  0  0  0  0
M  END
$$$$
default_name
  -OEChem-01062215323D

 23 22  0     1  0  0  0  0  0999 V2000
   -2.6721   -3.7279    0.7212 H   0  0  0  0  0  0  0  0  0  0  0  0
   -2.6561   -2.6819    0.4162 C   0  0  0  0  0  0  0  0  0  0  0  0
   -3.2401   -2.0889    1.1172 H   0  0  0  0  0  0  0  0  0  0  0  0
   -3.0671   -2.5859   -0.5858 H   0  0  0  0  0  0  0  0  0  0  0  0
   -1.2261   -2.1939    0.4202 C   0  0  0  0  0  0  0  0  0  0  0  0
   -0.3181   -2.9519    0.7312 O   0  0  0  0  0  0  0  0  0  0  0  0
   -1.0281   -0.9259    0.0662 N   0  0  0  0  0  0  0  0  0  0  0  0
   -1.8301   -0.3519   -0.1548 H   0  0  0  0  0  0  0  0  0  0  0  0
    0.2709   -0.2409    0.0912 C   0  0  1  0  0  0  0  0  0  0  0  0
    1.0583   -0.9859    0.2074 H   0  0  0  0  0  0  0  0  0  0  0  0
    0.5018    0.4894   -1.2381 C   0  0  0  0  0  0  0  0  0  0  0  0
    1.5102    0.9066   -1.2466 H   0  0  0  0  0  0  0  0  0  0  0  0
    0.4062   -0.2176   -2.0642 H   0  0  0  0  0  0  0  0  0  0  0  0
   -0.4281    1.5434   -1.4035 O   0  0  0  0  0  0  0  0  0  0  0  0
   -0.1454    2.0803   -2.1518 H   0  0  0  0  0  0  0  0  0  0  0  0
    0.3493    0.7253    1.2849 C   0  0  0  0  0  0  0  0  0  0  0  0
    1.0314    0.4356    2.2686 O   0  0  0  0  0  0  0  0  0  0  0  0
   -0.3322    1.8729    1.2005 N   0  0  0  0  0  0  0  0  0  0  0  0
   -0.9366    1.9816    0.3969 H   0  0  0  0  0  0  0  0  0  0  0  0
   -0.3494    2.9080    2.2323 C   0  0  0  0  0  0  0  0  0  0  0  0
    0.6663    3.0916    2.5890 H   0  0  0  0  0  0  0  0  0  0  0  0
   -0.7613    3.8338    1.8295 H   0  0  0  0  0  0  0  0  0  0  0  0
   -0.9606    2.5760    3.0741 H   0  0  0  0  0  0  0  0  0  0  0  0
  5  6  2  0  0  0  0
  5  7  1  0  0  0  0
  2  3  1  0  0  0  0
  2  4  1  0  0  0  0
  2  5  1  0  0  0  0
  1  2  1  0  0  0  0
 16 17  2  0  0  0  0
 16 18  1  0  0  0  0
 14 15  1  0  0  0  0
 11 12  1  0  0  0  0
 11 13  1  0  0  0  0
 11 14  1  0  0  0  0
  9 10  1  0  0  0  0
  9 11  1  0  0  0  0
  9 16  1  0  0  0  0
  7  8  1  0  0  0  0
  7  9  1  0  0  0  0
 20 21  1  0  0  0  0
 20 22  1  0  0  0  0
 20 23  1  0  0  0  0
 18 19  1  0  0  0  0
 18 20  1  0  0  0  0
M  END
$$$$
default_name
  -OEChem-01062215323D

 23 22  0     1  0  0  0  0  0999 V2000
   -2.6721   -3.7279    0.7212 H   0  0  0  0  0  0  0  0  0  0  0  0
   -2.6561   -2.6819    0.4162 C   0  0  0  0  0  0  0  0  0  0  0  0
   -3.2401   -2.0889    1.1172 H   0  0  0  0  0  0  0  0  0  0  0  0
   -3.0671   -2.5859   -0.5858 H   0  0  0  0  0  0  0  0  0  0  0  0
   -1.2261   -2.1939    0.4202 C   0  0  0  0  0  0  0  0  0  0  0  0
   -0.3181   -2.9519    0.7312 O   0  0  0  0  0  0  0  0  0  0  0  0
   -1.0281   -0.9259    0.0662 N   0  0  0  0  0  0  0  0  0  0  0  0
   -1.8301   -0.3519   -0.1548 H   0  0  0  0  0  0  0  0  0  0  0  0
    0.2709   -0.2409    0.0912 C   0  0  1  0  0  0  0  0  0  0  0  0
    1.0583   -0.9859    0.2074 H   0  0  0  0  0  0  0  0  0  0  0  0
    0.5018    0.4894   -1.2381 C   0  0  0  0  0  0  0  0  0  0  0  0
    1.5102    0.9066   -1.2466 H   0  0  0  0  0  0  0  0  0  0  0  0
    0.4062   -0.2176   -2.0642 H   0  0  0  0  0  0  0  0  0  0  0  0
   -0.4281    1.5434   -1.4035 O   0  0  0  0  0  0  0  0  0  0  0  0
   -0.1454    2.0803   -2.1518 H   0  0  0  0  0  0  0  0  0  0  0  0
    0.3493    0.7253    1.2849 C   0  0  0  0  0  0  0  0  0  0  0  0
    1.2274    0.5827    2.1366 O   0  0  0  0  0  0  0  0  0  0  0  0
   -0.5522    1.7113    1.3458 N   0  0  0  0  0  0  0  0  0  0  0  0
   -1.2895    1.6929    0.6538 H   0  0  0  0  0  0  0  0  0  0  0  0
   -0.6065    2.7251    2.3972 C   0  0  0  0  0  0  0  0  0  0  0  0
    0.3965    3.1112    2.5908 H   0  0  0  0  0  0  0  0  0  0  0  0
   -1.2554    3.5472    2.0940 H   0  0  0  0  0  0  0  0  0  0  0  0
   -0.9925    2.2793    3.3163 H   0  0  0  0  0  0  0  0  0  0  0  0
  5  6  2  0  0  0  0
  5  7  1  0  0  0  0
  2  3  1  0  0  0  0
  2  4  1  0  0  0  0
  2  5  1  0  0  0  0
  1  2  1  0  0  0  0
 16 17  2  0  0  0  0
 16 18  1  0  0  0  0
 14 15  1  0  0  0  0
 11 12  1  0  0  0  0
 11 13  1  0  0  0  0
 11 14  1  0  0  0  0
  9 10  1  0  0  0  0
  9 11  1  0  0  0  0
  9 16  1  0  0  0  0
  7  8  1  0  0  0  0
  7  9  1  0  0  0  0
 20 21  1  0  0  0  0
 20 22  1  0  0  0  0
 20 23  1  0  0  0  0
 18 19  1  0  0  0  0
 18 20  1  0  0  0  0
M  END
$$$$
default_name
  -OEChem-01062215323D

 23 22  0     1  0  0  0  0  0999 V2000
   -2.6721   -3.7279    0.7212 H   0  0  0  0  0  0  0  0  0  0  0  0
   -2.6561   -2.6819    0.4162 C   0  0  0  0  0  0  0  0  0  0  0  0
   -3.2401   -2.0889    1.1172 H   0  0  0  0  0  0  0  0  0  0  0  0
   -3.0671   -2.5859   -0.5858 H   0  0  0  0  0  0  0  0  0  0  0  0
   -1.2261   -2.1939    0.4202 C   0  0  0  0  0  0  0  0  0  0  0  0
   -0.3181   -2.9519    0.7312 O   0  0  0  0  0  0  0  0  0  0  0  0
   -1.0281   -0.9259    0.0662 N   0  0  0  0  0  0  0  0  0  0  0  0
   -1.8301   -0.3519   -0.1548 H   0  0  0  0  0  0  0  0  0  0  0  0
    0.2709   -0.2409    0.0912 C   0  0  1  0  0  0  0  0  0  0  0  0
    1.0583   -0.9859    0.2074 H   0  0  0  0  0  0  0  0  0  0  0  0
    0.5018    0.4894   -1.2381 C   0  0  0  0  0  0  0  0  0  0  0  0
    1.5102    0.9066   -1.2466 H   0  0  0  0  0  0  0  0  0  0  0  0
    0.4062   -0.2176   -2.0642 H   0  0  0  0  0  0  0  0  0  0  0  0
   -0.4281    1.5434   -1.4035 O   0  0  0  0  0  0  0  0  0  0  0  0
   -0.1454    2.0803   -2.1518 H   0  0  0  0  0  0  0  0  0  0  0  0
    0.3493    0.7253    1.2849 C   0  0  0  0  0  0  0  0  0  0  0  0
    1.3657    0.7660    1.9792 O   0  0  0  0  0  0  0  0  0  0  0  0
   -0.7086    1.5091    1.5198 N   0  0  0  0  0  0  0  0  0  0  0  0
   -1.5306    1.3397    0.9555 H   0  0  0  0  0  0  0  0  0  0  0  0
   -0.7913    2.4945    2.5960 C   0  0  0  0  0  0  0  0  0  0  0  0
    0.1323    3.0760    2.6366 H   0  0  0  0  0  0  0  0  0  0  0  0
   -1.6321    3.1676    2.4259 H   0  0  0  0  0  0  0  0  0  0  0  0
   -0.9244    1.9831    3.5516 H   0  0  0  0  0  0  0  0  0  0  0  0
  5  6  2  0  0  0  0
  5  7  1  0  0  0  0
  2  3  1  0  0  0  0
  2  4  1  0  0  0  0
  2  5  1  0  0  0  0
  1  2  1  0  0  0  0
 16 17  2  0  0  0  0
 16 18  1  0  0  0  0
 14 15  1  0  0  0  0
 11 12  1  0  0  0  0
 11 13  1  0  0  0  0
 11 14  1  0  0  0  0
  9 10  1  0  0  0  0
  9 11  1  0  0  0  0
  9 16  1  0  0  0  0
  7  8  1  0  0  0  0
  7  9  1  0  0  0  0
 20 21  1  0  0  0  0
 20 22  1  0  0  0  0
 20 23  1  0  0  0  0
 18 19  1  0  0  0  0
 18 20  1  0  0  0  0
M  END
$$$$
default_name
  -OEChem-01062215323D

 23 22  0     1  0  0  0  0  0999 V2000
   -2.6721   -3.7279    0.7212 H   0  0  0  0  0  0  0  0  0  0  0  0
   -2.6561   -2.6819    0.4162 C   0  0  0  0  0  0  0  0  0  0  0  0
   -3.2401   -2.0889    1.1172 H   0  0  0  0  0  0  0  0  0  0  0  0
   -3.0671   -2.5859   -0.5858 H   0  0  0  0  0  0  0  0  0  0  0  0
   -1.2261   -2.1939    0.4202 C   0  0  0  0  0  0  0  0  0  0  0  0
   -0.3181   -2.9519    0.7312 O   0  0  0  0  0  0  0  0  0  0  0  0
   -1.0281   -0.9259    0.0662 N   0  0  0  0  0  0  0  0  0  0  0  0
   -1.8301   -0.3519   -0.1548 H   0  0  0  0  0  0  0  0  0  0  0  0
    0.2709   -0.2409    0.0912 C   0  0  1  0  0  0  0  0  0  0  0  0
    1.0583   -0.9859    0.2074 H   0  0  0  0  0  0  0  0  0  0  0  0
    0.5018    0.4894   -1.2381 C   0  0  0  0  0  0  0  0  0  0  0  0
    1.5102    0.9066   -1.2466 H   0  0  0  0  0  0  0  0  0  0  0  0
    0.4062   -0.2176   -2.0642 H   0  0  0  0  0  0  0  0  0  0  0  0
   -0.4281    1.5434   -1.4035 O   0  0  0  0  0  0  0  0  0  0  0  0
   -0.1454    2.0803   -2.1518 H   0  0  0  0  0  0  0  0  0  0  0  0
    0.3493    0.7253    1.2849 C   0  0  0  0  0  0  0  0  0  0  0  0
    1.4369    0.9728    1.8071 O   0  0  0  0  0  0  0  0  0  0  0  0
   -0.7908    1.2800    1.7106 N   0  0  0  0  0  0  0  0  0  0  0  0
   -1.6435    0.9461    1.2814 H   0  0  0  0  0  0  0  0  0  0  0  0
   -0.8911    2.2321    2.8149 C   0  0  0  0  0  0  0  0  0  0  0  0
   -0.1085    2.9883    2.7234 H   0  0  0  0  0  0  0  0  0  0  0  0
   -1.8657    2.7209    2.8029 H   0  0  0  0  0  0  0  0  0  0  0  0
   -0.7608    1.7077    3.7638 H   0  0  0  0  0  0  0  0  0  0  0  0
  5  6  2  0  0  0  0
  5  7  1  0  0  0  0
  2  3  1  0  0  0  0
  2  4  1  0  0  0  0
  2  5  1  0  0  0  0
  1  2  1  0  0  0  0
 16 17  2  0  0  0  0
 16 18  1  0  0  0  0
 14 15  1  0  0  0  0
 11 12  1  0  0  0  0
 11 13  1  0  0  0  0
 11 14  1  0  0  0  0
  9 10  1  0  0  0  0
  9 11  1  0  0  0  0
  9 16  1  0  0  0  0
  7  8  1  0  0  0  0
  7  9  1  0  0  0  0
 20 21  1  0  0  0  0
 20 22  1  0  0  0  0
 20 23  1  0  0  0  0
 18 19  1  0  0  0  0
 18 20  1  0  0  0  0
M  END
$$$$
default_name
  -OEChem-01062215323D

 23 22  0     1  0  0  0  0  0999 V2000
   -2.6721   -3.7279    0.7212 H   0  0  0  0  0  0  0  0  0  0  0  0
   -2.6561   -2.6819    0.4162 C   0  0  0  0  0  0  0  0  0  0  0  0
   -3.2401   -2.0889    1.1172 H   0  0  0  0  0  0  0  0  0  0  0  0
   -3.0671   -2.5859   -0.5858 H   0  0  0  0  0  0  0  0  0  0  0  0
   -1.2261   -2.1939    0.4202 C   0  0  0  0  0  0  0  0  0  0  0  0
   -0.3181   -2.9519    0.7312 O   0  0  0  0  0  0  0  0  0  0  0  0
   -1.0281   -0.9259    0.0662 N   0  0  0  0  0  0  0  0  0  0  0  0
   -1.8301   -0.3519   -0.1548 H   0  0  0  0  0  0  0  0  0  0  0  0
    0.2709   -0.2409    0.0912 C   0  0  1  0  0  0  0  0  0  0  0  0
    1.0583   -0.9859    0.2074 H   0  0  0  0  0  0  0  0  0  0  0  0
    0.5018    0.4894   -1.2381 C   0  0  0  0  0  0  0  0  0  0  0  0
    1.5102    0.9066   -1.2466 H   0  0  0  0  0  0  0  0  0  0  0  0
    0.4062   -0.2176   -2.0642 H   0  0  0  0  0  0  0  0  0  0  0  0
   -0.4281    1.5434   -1.4035 O   0  0  0  0  0  0  0  0  0  0  0  0
   -0.1454    2.0803   -2.1518 H   0  0  0  0  0  0  0  0  0  0  0  0
    0.3493    0.7253    1.2849 C   0  0  0  0  0  0  0  0  0  0  0  0
    1.4361    1.1892    1.6321 O   0  0  0  0  0  0  0  0  0  0  0  0
   -0.7931    1.0397    1.9052 N   0  0  0  0  0  0  0  0  0  0  0  0
   -1.6205    0.5390    1.6094 H   0  0  0  0  0  0  0  0  0  0  0  0
   -0.8992    1.9557    3.0392 C   0  0  0  0  0  0  0  0  0  0  0  0
   -0.3093    2.8541    2.8453 H   0  0  0  0  0  0  0  0  0  0  0  0
   -1.9403    2.2374    3.1990 H   0  0  0  0  0  0  0  0  0  0  0  0
   -0.5129    1.4716    3.9385 H   0  0  0  0  0  0  0  0  0  0  0  0
  5  6  2  0  0  0  0
  5  7  1  0  0  0  0
  2  3  1  0  0  0  0
  2  4  1  0  0  0  0
  2  5  1  0  0  0  0
  1  2  1  0  0  0  0
 16 17  2  0  0  0  0
 16 18  1  0  0  0  0
 14 15  1  0  0  0  0
 11 12  1  0  0  0  0
 11 13  1  0  0  0  0
 11 14  1  0  0  0  0
  9 10  1  0  0  0  0
  9 11  1  0  0  0  0
  9 16  1  0  0  0  0
  7  8  1  0  0  0  0
  7  9  1  0  0  0  0
 20 21  1  0  0  0  0
 20 22  1  0  0  0  0
 20 23  1  0  0  0  0
 18 19  1  0  0  0  0
 18 20  1  0  0  0  0
M  END
$$$$
default_name
  -OEChem-01062215323D

 23 22  0     1  0  0  0  0  0999 V2000
   -2.6721   -3.7279    0.7212 H   0  0  0  0  0  0  0  0  0  0  0  0
   -2.6561   -2.6819    0.4162 C   0  0  0  0  0  0  0  0  0  0  0  0
   -3.2401   -2.0889    1.1172 H   0  0  0  0  0  0  0  0  0  0  0  0
   -3.0671   -2.5859   -0.5858 H   0  0  0  0  0  0  0  0  0  0  0  0
   -1.2261   -2.1939    0.4202 C   0  0  0  0  0  0  0  0  0  0  0  0
   -0.3181   -2.9519    0.7312 O   0  0  0  0  0  0  0  0  0  0  0  0
   -1.0281   -0.9259    0.0662 N   0  0  0  0  0  0  0  0  0  0  0  0
   -1.8301   -0.3519   -0.1548 H   0  0  0  0  0  0  0  0  0  0  0  0
    0.2709   -0.2409    0.0912 C   0  0  1  0  0  0  0  0  0  0  0  0
    1.0583   -0.9859    0.2074 H   0  0  0  0  0  0  0  0  0  0  0  0
    0.5018    0.4894   -1.2381 C   0  0  0  0  0  0  0  0  0  0  0  0
    1.5102    0.9066   -1.2466 H   0  0  0  0  0  0  0  0  0  0  0  0
    0.4062   -0.2176   -2.0642 H   0  0  0  0  0  0  0  0  0  0  0  0
   -0.4281    1.5434   -1.4035 O   0  0  0  0  0  0  0  0  0  0  0  0
   -0.1454    2.0803   -2.1518 H   0  0  0  0  0  0  0  0  0  0  0  0
    0.3493    0.7253    1.2849 C   0  0  0  0  0  0  0  0  0  0  0  0
    1.3634    1.4004    1.4659 O   0  0  0  0  0  0  0  0  0  0  0  0
   -0.7154    0.8046    2.0904 N   0  0  0  0  0  0  0  0  0  0  0  0
   -1.4631    0.1460    1.9171 H   0  0  0  0  0  0  0  0  0  0  0  0
   -0.8150    1.6841    3.2534 C   0  0  0  0  0  0  0  0  0  0  0  0
   -0.4564    2.6825    2.9938 H   0  0  0  0  0  0  0  0  0  0  0  0
   -1.8508    1.7503    3.5874 H   0  0  0  0  0  0  0  0  0  0  0  0
   -0.1976    1.2911    4.0639 H   0  0  0  0  0  0  0  0  0  0  0  0
  5  6  2  0  0  0  0
  5  7  1  0  0  0  0
  2  3  1  0  0  0  0
  2  4  1  0  0  0  0
  2  5  1  0  0  0  0
  1  2  1  0  0  0  0
 16 17  2  0  0  0  0
 16 18  1  0  0  0  0
 14 15  1  0  0  0  0
 11 12  1  0  0  0  0
 11 13  1  0  0  0  0
 11 14  1  0  0  0  0
  9 10  1  0  0  0  0
  9 11  1  0  0  0  0
  9 16  1  0  0  0  0
  7  8  1  0  0  0  0
  7  9  1  0  0  0  0
 20 21  1  0  0  0  0
 20 22  1  0  0  0  0
 20 23  1  0  0  0  0
 18 19  1  0  0  0  0
 18 20  1  0  0  0  0
M  END
$$$$
default_name
  -OEChem-01062215323D

 23 22  0     1  0  0  0  0  0999 V2000
   -2.6721   -3.7279    0.7212 H   0  0  0  0  0  0  0  0  0  0  0  0
   -2.6561   -2.6819    0.4162 C   0  0  0  0  0  0  0  0  0  0  0  0
   -3.2401   -2.0889    1.1172 H   0  0  0  0  0  0  0  0  0  0  0  0
   -3.0671   -2.5859   -0.5858 H   0  0  0  0  0  0  0  0  0  0  0  0
   -1.2261   -2.1939    0.4202 C   0  0  0  0  0  0  0  0  0  0  0  0
   -0.3181   -2.9519    0.7312 O   0  0  0  0  0  0  0  0  0  0  0  0
   -1.0281   -0.9259    0.0662 N   0  0  0  0  0  0  0  0  0  0  0  0
   -1.8301   -0.3519   -0.1548 H   0  0  0  0  0  0  0  0  0  0  0  0
    0.2709   -0.2409    0.0912 C   0  0  1  0  0  0  0  0  0  0  0  0
    1.0583   -0.9859    0.2074 H   0  0  0  0  0  0  0  0  0  0  0  0
    0.5018    0.4894   -1.2381 C   0  0  0  0  0  0  0  0  0  0  0  0
    1.5102    0.9066   -1.2466 H   0  0  0  0  0  0  0  0  0  0  0  0
    0.4062   -0.2176   -2.0642 H   0  0  0  0  0  0  0  0  0  0  0  0
   -0.4281    1.5434   -1.4035 O   0  0  0  0  0  0  0  0  0  0  0  0
   -0.1454    2.0803   -2.1518 H   0  0  0  0  0  0  0  0  0  0  0  0
    0.3493    0.7253    1.2849 C   0  0  0  0  0  0  0  0  0  0  0  0
    1.2237    1.5919    1.3201 O   0  0  0  0  0  0  0  0  0  0  0  0
   -0.5629    0.5906    2.2535 N   0  0  0  0  0  0  0  0  0  0  0  0
   -1.1821   -0.2060    2.1836 H   0  0  0  0  0  0  0  0  0  0  0  0
   -0.6442    1.4359    3.4431 C   0  0  0  0  0  0  0  0  0  0  0  0
   -0.5400    2.4852    3.1590 H   0  0  0  0  0  0  0  0  0  0  0  0
   -1.6033    1.2925    3.9416 H   0  0  0  0  0  0  0  0  0  0  0  0
    0.1635    1.1784    4.1314 H   0  0  0  0  0  0  0  0  0  0  0  0
  5  6  2  0  0  0  0
  5  7  1  0  0  0  0
  2  3  1  0  0  0  0
  2  4  1  0  0  0  0
  2  5  1  0  0  0  0
  1  2  1  0  0  0  0
 16 17  2  0  0  0  0
 16 18  1  0  0  0  0
 14 15  1  0  0  0  0
 11 12  1  0  0  0  0
 11 13  1  0  0  0  0
 11 14  1  0  0  0  0
  9 10  1  0  0  0  0
  9 11  1  0  0  0  0
  9 16  1  0  0  0  0
  7  8  1  0  0  0  0
  7  9  1  0  0  0  0
 20 21  1  0  0  0  0
 20 22  1  0  0  0  0
 20 23  1  0  0  0  0
 18 19  1  0  0  0  0
 18 20  1  0  0  0  0
M  END
$$$$
default_name
  -OEChem-01062215323D

 23 22  0     1  0  0  0  0  0999 V2000
   -2.6721   -3.7279    0.7212 H   0  0  0  0  0  0  0  0  0  0  0  0
   -2.6561   -2.6819    0.4162 C   0  0  0  0  0  0  0  0  0  0  0  0
   -3.2401   -2.0889    1.1172 H   0  0  0  0  0  0  0  0  0  0  0  0
   -3.0671   -2.5859   -0.5858 H   0  0  0  0  0  0  0  0  0  0  0  0
   -1.2261   -2.1939    0.4202 C   0  0  0  0  0  0  0  0  0  0  0  0
   -0.3181   -2.9519    0.7312 O   0  0  0  0  0  0  0  0  0  0  0  0
   -1.0281   -0.9259    0.0662 N   0  0  0  0  0  0  0  0  0  0  0  0
   -1.8301   -0.3519   -0.1548 H   0  0  0  0  0  0  0  0  0  0  0  0
    0.2709   -0.2409    0.0912 C   0  0  1  0  0  0  0  0  0  0  0  0
    1.0583   -0.9859    0.2074 H   0  0  0  0  0  0  0  0  0  0  0  0
    0.5018    0.4894   -1.2381 C   0  0  0  0  0  0  0  0  0  0  0  0
    1.5102    0.9066   -1.2466 H   0  0  0  0  0  0  0  0  0  0  0  0
    0.4062   -0.2176   -2.0642 H   0  0  0  0  0  0  0  0  0  0  0  0
   -0.4281    1.5434   -1.4035 O   0  0  0  0  0  0  0  0  0  0  0  0
   -0.1454    2.0803   -2.1518 H   0  0  0  0  0  0  0  0  0  0  0  0
    0.3493    0.7253    1.2849 C   0  0  0  0  0  0  0  0  0  0  0  0
    1.0266    1.7508    1.2044 O   0  0  0  0  0  0  0  0  0  0  0  0
   -0.3462    0.4124    2.3835 N   0  0  0  0  0  0  0  0  0  0  0  0
   -0.7966   -0.4931    2.3906 H   0  0  0  0  0  0  0  0  0  0  0  0
   -0.3986    1.2279    3.5953 C   0  0  0  0  0  0  0  0  0  0  0  0
   -0.5541    2.2757    3.3295 H   0  0  0  0  0  0  0  0  0  0  0  0
   -1.2147    0.8955    4.2375 H   0  0  0  0  0  0  0  0  0  0  0  0
    0.5460    1.1413    4.1363 H   0  0  0  0  0  0  0  0  0  0  0  0
  5  6  2  0  0  0  0
  5  7  1  0  0  0  0
  2  3  1  0  0  0  0
  2  4  1  0  0  0  0
  2  5  1  0  0  0  0
  1  2  1  0  0  0  0
 16 17  2  0  0  0  0
 16 18  1  0  0  0  0
 14 15  1  0  0  0  0
 11 12  1  0  0  0  0
 11 13  1  0  0  0  0
 11 14  1  0  0  0  0
  9 10  1  0  0  0  0
  9 11  1  0  0  0  0
  9 16  1  0  0  0  0
  7  8  1  0  0  0  0
  7  9  1  0  0  0  0
 20 21  1  0  0  0  0
 20 22  1  0  0  0  0
 20 23  1  0  0  0  0
 18 19  1  0  0  0  0
 18 20  1  0  0  0  0
M  END
$$$$
default_name
  -OEChem-01062215323D

 23 22  0     1  0  0  0  0  0999 V2000
   -2.6721   -3.7279    0.7212 H   0  0  0  0  0  0  0  0  0  0  0  0
   -2.6561   -2.6819    0.4162 C   0  0  0  0  0  0  0  0  0  0  0  0
   -3.2401   -2.0889    1.1172 H   0  0  0  0  0  0  0  0  0  0  0  0
   -3.0671   -2.5859   -0.5858 H   0  0  0  0  0  0  0  0  0  0  0  0
   -1.2261   -2.1939    0.4202 C   0  0  0  0  0  0  0  0  0  0  0  0
   -0.3181   -2.9519    0.7312 O   0  0  0  0  0  0  0  0  0  0  0  0
   -1.0281   -0.9259    0.0662 N   0  0  0  0  0  0  0  0  0  0  0  0
   -1.8301   -0.3519   -0.1548 H   0  0  0  0  0  0  0  0  0  0  0  0
    0.2709   -0.2409    0.0912 C   0  0  1  0  0  0  0  0  0  0  0  0
    1.0583   -0.9859    0.2074 H   0  0  0  0  0  0  0  0  0  0  0  0
    0.5018    0.4894   -1.2381 C   0  0  0  0  0  0  0  0  0  0  0  0
    1.5102    0.9066   -1.2466 H   0  0  0  0  0  0  0  0  0  0  0  0
    0.4062   -0.2176   -2.0642 H   0  0  0  0  0  0  0  0  0  0  0  0
   -0.4281    1.5434   -1.4035 O   0  0  0  0  0  0  0  0  0  0  0  0
   -0.1454    2.0803   -2.1518 H   0  0  0  0  0  0  0  0  0  0  0  0
    0.3493    0.7253    1.2849 C   0  0  0  0  0  0  0  0  0  0  0  0
    0.7854    1.8662    1.1269 O   0  0  0  0  0  0  0  0  0  0  0  0
   -0.0799    0.2821    2.4715 N   0  0  0  0  0  0  0  0  0  0  0  0
   -0.3329   -0.6957    2.5241 H   0  0  0  0  0  0  0  0  0  0  0  0
   -0.0948    1.0743    3.6996 C   0  0  0  0  0  0  0  0  0  0  0  0
   -0.4980    2.0682    3.4938 H   0  0  0  0  0  0  0  0  0  0  0  0
   -0.7114    0.5861    4.4548 H   0  0  0  0  0  0  0  0  0  0  0  0
    0.9237    1.1822    4.0784 H   0  0  0  0  0  0  0  0  0  0  0  0
  5  6  2  0  0  0  0
  5  7  1  0  0  0  0
  2  3  1  0  0  0  0
  2  4  1  0  0  0  0
  2  5  1  0  0  0  0
  1  2  1  0  0  0  0
 16 17  2  0  0  0  0
 16 18  1  0  0  0  0
 14 15  1  0  0  0  0
 11 12  1  0  0  0  0
 11 13  1  0  0  0  0
 11 14  1  0  0  0  0
  9 10  1  0  0  0  0
  9 11  1  0  0  0  0
  9 16  1  0  0  0  0
  7  8  1  0  0  0  0
  7  9  1  0  0  0  0
 20 21  1  0  0  0  0
 20 22  1  0  0  0  0
 20 23  1  0  0  0  0
 18 19  1  0  0  0  0
 18 20  1  0  0  0  0
M  END
$$$$
default_name
  -OEChem-01062215323D

 23 22  0     1  0  0  0  0  0999 V2000
   -2.6721   -3.7279    0.7212 H   0  0  0  0  0  0  0  0  0  0  0  0
   -2.6561   -2.6819    0.4162 C   0  0  0  0  0  0  0  0  0  0  0  0
   -3.2401   -2.0889    1.1172 H   0  0  0  0  0  0  0  0  0  0  0  0
   -3.0671   -2.5859   -0.5858 H   0  0  0  0  0  0  0  0  0  0  0  0
   -1.2261   -2.1939    0.4202 C   0  0  0  0  0  0  0  0  0  0  0  0
   -0.3181   -2.9519    0.7312 O   0  0  0  0  0  0  0  0  0  0  0  0
   -1.0281   -0.9259    0.0662 N   0  0  0  0  0  0  0  0  0  0  0  0
   -1.8301   -0.3519   -0.1548 H   0  0  0  0  0  0  0  0  0  0  0  0
    0.2709   -0.2409    0.0912 C   0  0  1  0  0  0  0  0  0  0  0  0
    1.0583   -0.9859    0.2074 H   0  0  0  0  0  0  0  0  0  0  0  0
    0.5018    0.4894   -1.2381 C   0  0  0  0  0  0  0  0  0  0  0  0
    1.5102    0.9066   -1.2466 H   0  0  0  0  0  0  0  0  0  0  0  0
    0.4062   -0.2176   -2.0642 H   0  0  0  0  0  0  0  0  0  0  0  0
   -0.4281    1.5434   -1.4035 O   0  0  0  0  0  0  0  0  0  0  0  0
   -0.1454    2.0803   -2.1518 H   0  0  0  0  0  0  0  0  0  0  0  0
    0.3493    0.7253    1.2849 C   0  0  0  0  0  0  0  0  0  0  0  0
    0.5167    1.9302    1.0927 O   0  0  0  0  0  0  0  0  0  0  0  0
    0.2178    0.2086    2.5114 N   0  0  0  0  0  0  0  0  0  0  0  0
    0.1774   -0.8000    2.5750 H   0  0  0  0  0  0  0  0  0  0  0  0
    0.2465    0.9857    3.7490 C   0  0  0  0  0  0  0  0  0  0  0  0
   -0.3754    1.8769    3.6405 H   0  0  0  0  0  0  0  0  0  0  0  0
   -0.1278    0.3855    4.5788 H   0  0  0  0  0  0  0  0  0  0  0  0
    1.2709    1.2984    3.9615 H   0  0  0  0  0  0  0  0  0  0  0  0
  5  6  2  0  0  0  0
  5  7  1  0  0  0  0
  2  3  1  0  0  0  0
  2  4  1  0  0  0  0
  2  5  1  0  0  0  0
  1  2  1  0  0  0  0
 16 17  2  0  0  0  0
 16 18  1  0  0  0  0
 14 15  1  0  0  0  0
 11 12  1  0  0  0  0
 11 13  1  0  0  0  0
 11 14  1  0  0  0  0
  9 10  1  0  0  0  0
  9 11  1  0  0  0  0
  9 16  1  0  0  0  0
  7  8  1  0  0  0  0
  7  9  1  0  0  0  0
 20 21  1  0  0  0  0
 20 22  1  0  0  0  0
 20 23  1  0  0  0  0
 18 19  1  0  0  0  0
 18 20  1  0  0  0  0
M  END
$$$$
default_name
  -OEChem-01062215323D

 23 22  0     1  0  0  0  0  0999 V2000
   -2.6721   -3.7279    0.7212 H   0  0  0  0  0  0  0  0  0  0  0  0
   -2.6561   -2.6819    0.4162 C   0  0  0  0  0  0  0  0  0  0  0  0
   -3.2401   -2.0889    1.1172 H   0  0  0  0  0  0  0  0  0  0  0  0
   -3.0671   -2.5859   -0.5858 H   0  0  0  0  0  0  0  0  0  0  0  0
   -1.2261   -2.1939    0.4202 C   0  0  0  0  0  0  0  0  0  0  0  0
   -0.3181   -2.9519    0.7312 O   0  0  0  0  0  0  0  0  0  0  0  0
   -1.0281   -0.9259    0.0662 N   0  0  0  0  0  0  0  0  0  0  0  0
   -1.8301   -0.3519   -0.1548 H   0  0  0  0  0  0  0  0  0  0  0  0
    0.2709   -0.2409    0.0912 C   0  0  1  0  0  0  0  0  0  0  0  0
    1.0583   -0.9859    0.2074 H   0  0  0  0  0  0  0  0  0  0  0  0
    0.5018    0.4894   -1.2381 C   0  0  0  0  0  0  0  0  0  0  0  0
    1.5102    0.9066   -1.2466 H   0  0  0  0  0  0  0  0  0  0  0  0
    0.4062   -0.2176   -2.0642 H   0  0  0  0  0  0  0  0  0  0  0  0
   -0.4281    1.5434   -1.4035 O   0  0  0  0  0  0  0  0  0  0  0  0
   -0.1454    2.0803   -2.1518 H   0  0  0  0  0  0  0  0  0  0  0  0
    0.3493    0.7253    1.2849 C   0  0  0  0  0  0  0  0  0  0  0  0
    0.2387    1.9385    1.1043 O   0  0  0  0  0  0  0  0  0  0  0  0
    0.5266    0.1969    2.5006 N   0  0  0  0  0  0  0  0  0  0  0  0
    0.6996   -0.7988    2.5397 H   0  0  0  0  0  0  0  0  0  0  0  0
    0.6020    0.9680    3.7400 C   0  0  0  0  0  0  0  0  0  0  0  0
   -0.1946    1.7148    3.7599 H   0  0  0  0  0  0  0  0  0  0  0  0
    0.4964    0.3074    4.6010 H   0  0  0  0  0  0  0  0  0  0  0  0
    1.5640    1.4819    3.7938 H   0  0  0  0  0  0  0  0  0  0  0  0
  5  6  2  0  0  0  0
  5  7  1  0  0  0  0
  2  3  1  0  0  0  0
  2  4  1  0  0  0  0
  2  5  1  0  0  0  0
  1  2  1  0  0  0  0
 16 17  2  0  0  0  0
 16 18  1  0  0  0  0
 14 15  1  0  0  0  0
 11 12  1  0  0  0  0
 11 13  1  0  0  0  0
 11 14  1  0  0  0  0
  9 10  1  0  0  0  0
  9 11  1  0  0  0  0
  9 16  1  0  0  0  0
  7  8  1  0  0  0  0
  7  9  1  0  0  0  0
 20 21  1  0  0  0  0
 20 22  1  0  0  0  0
 20 23  1  0  0  0  0
 18 19  1  0  0  0  0
 18 20  1  0  0  0  0
M  END
$$$$
default_name
  -OEChem-01062215323D

 23 22  0     1  0  0  0  0  0999 V2000
   -2.6721   -3.7279    0.7212 H   0  0  0  0  0  0  0  0  0  0  0  0
   -2.6561   -2.6819    0.4162 C   0  0  0  0  0  0  0  0  0  0  0  0
   -3.2401   -2.0889    1.1172 H   0  0  0  0  0  0  0  0  0  0  0  0
   -3.0671   -2.5859   -0.5858 H   0  0  0  0  0  0  0  0  0  0  0  0
   -1.2261   -2.1939    0.4202 C   0  0  0  0  0  0  0  0  0  0  0  0
   -0.3181   -2.9519    0.7312 O   0  0  0  0  0  0  0  0  0  0  0  0
   -1.0281   -0.9259    0.0662 N   0  0  0  0  0  0  0  0  0  0  0  0
   -1.8301   -0.3519   -0.1548 H   0  0  0  0  0  0  0  0  0  0  0  0
    0.2709   -0.2409    0.0912 C   0  0  1  0  0  0  0  0  0  0  0  0
    1.0583   -0.9859    0.2074 H   0  0  0  0  0  0  0  0  0  0  0  0
    0.5018    0.4894   -1.2381 C   0  0  0  0  0  0  0  0  0  0  0  0
    1.5102    0.9066   -1.2466 H   0  0  0  0  0  0  0  0  0  0  0  0
    0.4062   -0.2176   -2.0642 H   0  0  0  0  0  0  0  0  0  0  0  0
   -0.4281    1.5434   -1.4035 O   0  0  0  0  0  0  0  0  0  0  0  0
   -0.1454    2.0803   -2.1518 H   0  0  0  0  0  0  0  0  0  0  0  0
    0.3493    0.7253    1.2849 C   0  0  0  0  0  0  0  0  0  0  0  0
   -0.0296    1.8905    1.1607 O   0  0  0  0  0  0  0  0  0  0  0  0
    0.8255    0.2477    2.4398 N   0  0  0  0  0  0  0  0  0  0  0  0
    1.1980   -0.6923    2.4208 H   0  0  0  0  0  0  0  0  0  0  0  0
    0.9475    1.0224    3.6732 C   0  0  0  0  0  0  0  0  0  0  0  0
    0.0320    1.5929    3.8436 H   0  0  0  0  0  0  0  0  0  0  0  0
    1.1186    0.3571    4.5199 H   0  0  0  0  0  0  0  0  0  0  0  0
    1.7829    1.7202    3.5865 H   0  0  0  0  0  0  0  0  0  0  0  0
  5  6  2  0  0  0  0
  5  7  1  0  0  0  0
  2  3  1  0  0  0  0
  2  4  1  0  0  0  0
  2  5  1  0  0  0  0
  1  2  1  0  0  0  0
 16 17  2  0  0  0  0
 16 18  1  0  0  0  0
 14 15  1  0  0  0  0
 11 12  1  0  0  0  0
 11 13  1  0  0  0  0
 11 14  1  0  0  0  0
  9 10  1  0  0  0  0
  9 11  1  0  0  0  0
  9 16  1  0  0  0  0
  7  8  1  0  0  0  0
  7  9  1  0  0  0  0
 20 21  1  0  0  0  0
 20 22  1  0  0  0  0
 20 23  1  0  0  0  0
 18 19  1  0  0  0  0
 18 20  1  0  0  0  0
M  END
$$$$
default_name
  -OEChem-01062215323D

 23 22  0     1  0  0  0  0  0999 V2000
   -2.6721   -3.7279    0.7212 H   0  0  0  0  0  0  0  0  0  0  0  0
   -2.6561   -2.6819    0.4162 C   0  0  0  0  0  0  0  0  0  0  0  0
   -3.2401   -2.0889    1.1172 H   0  0  0  0  0  0  0  0  0  0  0  0
   -3.0671   -2.5859   -0.5858 H   0  0  0  0  0  0  0  0  0  0  0  0
   -1.2261   -2.1939    0.4202 C   0  0  0  0  0  0  0  0  0  0  0  0
   -0.3181   -2.9519    0.7312 O   0  0  0  0  0  0  0  0  0  0  0  0
   -1.0281   -0.9259    0.0662 N   0  0  0  0  0  0  0  0  0  0  0  0
   -1.8301   -0.3519   -0.1548 H   0  0  0  0  0  0  0  0  0  0  0  0
    0.2709   -0.2409    0.0912 C   0  0  1  0  0  0  0  0  0  0  0  0
    1.0583   -0.9859    0.2074 H   0  0  0  0  0  0  0  0  0  0  0  0
    0.5018    0.4894   -1.2381 C   0  0  0  0  0  0  0  0  0  0  0  0
    1.5102    0.9066   -1.2466 H   0  0  0  0  0  0  0  0  0  0  0  0
    0.4062   -0.2176   -2.0642 H   0  0  0  0  0  0  0  0  0  0  0  0
   -0.4281    1.5434   -1.4035 O   0  0  0  0  0  0  0  0  0  0  0  0
   -0.1454    2.0803   -2.1518 H   0  0  0  0  0  0  0  0  0  0  0  0
    0.3493    0.7253    1.2849 C   0  0  0  0  0  0  0  0  0  0  0  0
   -0.2699    1.7896    1.2583 O   0  0  0  0  0  0  0  0  0  0  0  0
    1.0941    0.3577    2.3331 N   0  0  0  0  0  0  0  0  0  0  0  0
    1.6387   -0.4878    2.2263 H   0  0  0  0  0  0  0  0  0  0  0  0
    1.2594    1.1453    3.5533 C   0  0  0  0  0  0  0  0  0  0  0  0
    0.2889    1.5197    3.8860 H   0  0  0  0  0  0  0  0  0  0  0  0
    1.6965    0.5311    4.3411 H   0  0  0  0  0  0  0  0  0  0  0  0
    1.9127    1.9972    3.3538 H   0  0  0  0  0  0  0  0  0  0  0  0
  5  6  2  0  0  0  0
  5  7  1  0  0  0  0
  2  3  1  0  0  0  0
  2  4  1  0  0  0  0
  2  5  1  0  0  0  0
  1  2  1  0  0  0  0
 16 17  2  0  0  0  0
 16 18  1  0  0  0  0
 14 15  1  0  0  0  0
 11 12  1  0  0  0  0
 11 13  1  0  0  0  0
 11 14  1  0  0  0  0
  9 10  1  0  0  0  0
  9 11  1  0  0  0  0
  9 16  1  0  0  0  0
  7  8  1  0  0  0  0
  7  9  1  0  0  0  0
 20 21  1  0  0  0  0
 20 22  1  0  0  0  0
 20 23  1  0  0  0  0
 18 19  1  0  0  0  0
 18 20  1  0  0  0  0
M  END
$$$$
default_name
  -OEChem-01062215323D

 23 22  0     1  0  0  0  0  0999 V2000
   -2.6721   -3.7279    0.7212 H   0  0  0  0  0  0  0  0  0  0  0  0
   -2.6561   -2.6819    0.4162 C   0  0  0  0  0  0  0  0  0  0  0  0
   -3.2401   -2.0889    1.1172 H   0  0  0  0  0  0  0  0  0  0  0  0
   -3.0671   -2.5859   -0.5858 H   0  0  0  0  0  0  0  0  0  0  0  0
   -1.2261   -2.1939    0.4202 C   0  0  0  0  0  0  0  0  0  0  0  0
   -0.3181   -2.9519    0.7312 O   0  0  0  0  0  0  0  0  0  0  0  0
   -1.0281   -0.9259    0.0662 N   0  0  0  0  0  0  0  0  0  0  0  0
   -1.8301   -0.3519   -0.1548 H   0  0  0  0  0  0  0  0  0  0  0  0
    0.2709   -0.2409    0.0912 C   0  0  1  0  0  0  0  0  0  0  0  0
    1.0583   -0.9859    0.2074 H   0  0  0  0  0  0  0  0  0  0  0  0
    0.5018    0.4894   -1.2381 C   0  0  0  0  0  0  0  0  0  0  0  0
    1.5102    0.9066   -1.2466 H   0  0  0  0  0  0  0  0  0  0  0  0
    0.4062   -0.2176   -2.0642 H   0  0  0  0  0  0  0  0  0  0  0  0
   -0.4281    1.5434   -1.4035 O   0  0  0  0  0  0  0  0  0  0  0  0
   -0.1454    2.0803   -2.1518 H   0  0  0  0  0  0  0  0  0  0  0  0
    0.3493    0.7253    1.2849 C   0  0  0  0  0  0  0  0  0  0  0  0
   -0.4659    1.6424    1.3902 O   0  0  0  0  0  0  0  0  0  0  0  0
    1.3141    0.5194    2.1879 N   0  0  0  0  0  0  0  0  0  0  0  0
    1.9916   -0.1991    1.9694 H   0  0  0  0  0  0  0  0  0  0  0  0
    1.5164    1.3282    3.3883 C   0  0  0  0  0  0  0  0  0  0  0  0
    0.5587    1.5000    3.8842 H   0  0  0  0  0  0  0  0  0  0  0  0
    2.1906    0.8177    4.0767 H   0  0  0  0  0  0  0  0  0  0  0  0
    1.9447    2.2938    3.1116 H   0  0  0  0  0  0  0  0  0  0  0  0
  5  6  2  0  0  0  0
  5  7  1  0  0  0  0
  2  3  1  0  0  0  0
  2  4  1  0  0  0  0
  2  5  1  0  0  0  0
  1  2  1  0  0  0  0
 16 17  2  0  0  0  0
 16 18  1  0  0  0  0
 14 15  1  0  0  0  0
 11 12  1  0  0  0  0
 11 13  1  0  0  0  0
 11 14  1  0  0  0  0
  9 10  1  0  0  0  0
  9 11  1  0  0  0  0
  9 16  1  0  0  0  0
  7  8  1  0  0  0  0
  7  9  1  0  0  0  0
 20 21  1  0  0  0  0
 20 22  1  0  0  0  0
 20 23  1  0  0  0  0
 18 19  1  0  0  0  0
 18 20  1  0  0  0  0
M  END
$$$$
default_name
  -OEChem-01062215323D

 23 22  0     1  0  0  0  0  0999 V2000
   -2.6721   -3.7279    0.7212 H   0  0  0  0  0  0  0  0  0  0  0  0
   -2.6561   -2.6819    0.4162 C   0  0  0  0  0  0  0  0  0  0  0  0
   -3.2401   -2.0889    1.1172 H   0  0  0  0  0  0  0  0  0  0  0  0
   -3.0671   -2.5859   -0.5858 H   0  0  0  0  0  0  0  0  0  0  0  0
   -1.2261   -2.1939    0.4202 C   0  0  0  0  0  0  0  0  0  0  0  0
   -0.3181   -2.9519    0.7312 O   0  0  0  0  0  0  0  0  0  0  0  0
   -1.0281   -0.9259    0.0662 N   0  0  0  0  0  0  0  0  0  0  0  0
   -1.8301   -0.3519   -0.1548 H   0  0  0  0  0  0  0  0  0  0  0  0
    0.2709   -0.2409    0.0912 C   0  0  1  0  0  0  0  0  0  0  0  0
    1.0583   -0.9859    0.2074 H   0  0  0  0  0  0  0  0  0  0  0  0
    0.5018    0.4894   -1.2381 C   0  0  0  0  0  0  0  0  0  0  0  0
    1.5102    0.9066   -1.2466 H   0  0  0  0  0  0  0  0  0  0  0  0
    0.4062   -0.2176   -2.0642 H   0  0  0  0  0  0  0  0  0  0  0  0
   -0.4281    1.5434   -1.4035 O   0  0  0  0  0  0  0  0  0  0  0  0
   -0.1454    2.0803   -2.1518 H   0  0  0  0  0  0  0  0  0  0  0  0
    0.3493    0.7253    1.2849 C   0  0  0  0  0  0  0  0  0  0  0  0
   -0.6042    1.4592    1.5476 O   0  0  0  0  0  0  0  0  0  0  0  0
    1.4705    0.7216    2.0139 N   0  0  0  0  0  0  0  0  0  0  0  0
    2.2328    0.1541    1.6677 H   0  0  0  0  0  0  0  0  0  0  0  0
    1.7012    1.5587    3.1896 C   0  0  0  0  0  0  0  0  0  0  0  0
    0.8230    1.5352    3.8383 H   0  0  0  0  0  0  0  0  0  0  0  0
    2.5673    1.1973    3.7447 H   0  0  0  0  0  0  0  0  0  0  0  0
    1.8765    2.5900    2.8763 H   0  0  0  0  0  0  0  0  0  0  0  0
  5  6  2  0  0  0  0
  5  7  1  0  0  0  0
  2  3  1  0  0  0  0
  2  4  1  0  0  0  0
  2  5  1  0  0  0  0
  1  2  1  0  0  0  0
 16 17  2  0  0  0  0
 16 18  1  0  0  0  0
 14 15  1  0  0  0  0
 11 12  1  0  0  0  0
 11 13  1  0  0  0  0
 11 14  1  0  0  0  0
  9 10  1  0  0  0  0
  9 11  1  0  0  0  0
  9 16  1  0  0  0  0
  7  8  1  0  0  0  0
  7  9  1  0  0  0  0
 20 21  1  0  0  0  0
 20 22  1  0  0  0  0
 20 23  1  0  0  0  0
 18 19  1  0  0  0  0
 18 20  1  0  0  0  0
M  END
$$$$
default_name
  -OEChem-01062215323D

 23 22  0     1  0  0  0  0  0999 V2000
   -2.6721   -3.7279    0.7212 H   0  0  0  0  0  0  0  0  0  0  0  0
   -2.6561   -2.6819    0.4162 C   0  0  0  0  0  0  0  0  0  0  0  0
   -3.2401   -2.0889    1.1172 H   0  0  0  0  0  0  0  0  0  0  0  0
   -3.0671   -2.5859   -0.5858 H   0  0  0  0  0  0  0  0  0  0  0  0
   -1.2261   -2.1939    0.4202 C   0  0  0  0  0  0  0  0  0  0  0  0
   -0.3181   -2.9519    0.7312 O   0  0  0  0  0  0  0  0  0  0  0  0
   -1.0281   -0.9259    0.0662 N   0  0  0  0  0  0  0  0  0  0  0  0
   -1.8301   -0.3519   -0.1548 H   0  0  0  0  0  0  0  0  0  0  0  0
    0.2709   -0.2409    0.0912 C   0  0  1  0  0  0  0  0  0  0  0  0
    1.0583   -0.9859    0.2074 H   0  0  0  0  0  0  0  0  0  0  0  0
    0.5018    0.4894   -1.2381 C   0  0  0  0  0  0  0  0  0  0  0  0
    1.5102    0.9066   -1.2466 H   0  0  0  0  0  0  0  0  0  0  0  0
    0.4062   -0.2176   -2.0642 H   0  0  0  0  0  0  0  0  0  0  0  0
   -0.4281    1.5434   -1.4035 O   0  0  0  0  0  0  0  0  0  0  0  0
   -0.1454    2.0803   -2.1518 H   0  0  0  0  0  0  0  0  0  0  0  0
    0.3493    0.7253    1.2849 C   0  0  0  0  0  0  0  0  0  0  0  0
   -0.6754    1.2523    1.7197 O   0  0  0  0  0  0  0  0  0  0  0  0
    1.5527    0.9507    1.8231 N   0  0  0  0  0  0  0  0  0  0  0  0
    2.3457    0.5477    1.3418 H   0  0  0  0  0  0  0  0  0  0  0  0
    1.8010    1.8211    2.9706 C   0  0  0  0  0  0  0  0  0  0  0  0
    1.0637    1.6229    3.7515 H   0  0  0  0  0  0  0  0  0  0  0  0
    2.8009    1.6440    3.3678 H   0  0  0  0  0  0  0  0  0  0  0  0
    1.7129    2.8655    2.6641 H   0  0  0  0  0  0  0  0  0  0  0  0
  5  6  2  0  0  0  0
  5  7  1  0  0  0  0
  2  3  1  0  0  0  0
  2  4  1  0  0  0  0
  2  5  1  0  0  0  0
  1  2  1  0  0  0  0
 16 17  2  0  0  0  0
 16 18  1  0  0  0  0
 14 15  1  0  0  0  0
 11 12  1  0  0  0  0
 11 13  1  0  0  0  0
 11 14  1  0  0  0  0
  9 10  1  0  0  0  0
  9 11  1  0  0  0  0
  9 16  1  0  0  0  0
  7  8  1  0  0  0  0
  7  9  1  0  0  0  0
 20 21  1  0  0  0  0
 20 22  1  0  0  0  0
 20 23  1  0  0  0  0
 18 19  1  0  0  0  0
 18 20  1  0  0  0  0
M  END
$$$$
default_name
  -OEChem-01062215323D

 23 22  0     1  0  0  0  0  0999 V2000
   -2.6721   -3.7279    0.7212 H   0  0  0  0  0  0  0  0  0  0  0  0
   -2.6561   -2.6819    0.4162 C   0  0  0  0  0  0  0  0  0  0  0  0
   -3.2401   -2.0889    1.1172 H   0  0  0  0  0  0  0  0  0  0  0  0
   -3.0671   -2.5859   -0.5858 H   0  0  0  0  0  0  0  0  0  0  0  0
   -1.2261   -2.1939    0.4202 C   0  0  0  0  0  0  0  0  0  0  0  0
   -0.3181   -2.9519    0.7312 O   0  0  0  0  0  0  0  0  0  0  0  0
   -1.0281   -0.9259    0.0662 N   0  0  0  0  0  0  0  0  0  0  0  0
   -1.8301   -0.3519   -0.1548 H   0  0  0  0  0  0  0  0  0  0  0  0
    0.2709   -0.2409    0.0912 C   0  0  1  0  0  0  0  0  0  0  0  0
    1.0583   -0.9859    0.2074 H   0  0  0  0  0  0  0  0  0  0  0  0
    0.5018    0.4894   -1.2381 C   0  0  0  0  0  0  0  0  0  0  0  0
    1.5102    0.9066   -1.2466 H   0  0  0  0  0  0  0  0  0  0  0  0
    0.4062   -0.2176   -2.0642 H   0  0  0  0  0  0  0  0  0  0  0  0
   -0.4281    1.5434   -1.4035 O   0  0  0  0  0  0  0  0  0  0  0  0
   -0.1454    2.0803   -2.1518 H   0  0  0  0  0  0  0  0  0  0  0  0
    0.3493    0.7253    1.2849 C   0  0  0  0  0  0  0  0  0  0  0  0
   -0.6746    1.0360    1.8948 O   0  0  0  0  0  0  0  0  0  0  0  0
    1.5550    1.1910    1.6285 N   0  0  0  0  0  0  0  0  0  0  0  0
    2.3226    0.9548    1.0138 H   0  0  0  0  0  0  0  0  0  0  0  0
    1.8091    2.0976    2.7464 C   0  0  0  0  0  0  0  0  0  0  0  0
    1.2645    1.7571    3.6297 H   0  0  0  0  0  0  0  0  0  0  0  0
    2.8755    2.1275    2.9716 H   0  0  0  0  0  0  0  0  0  0  0  0
    1.4650    3.1015    2.4894 H   0  0  0  0  0  0  0  0  0  0  0  0
  5  6  2  0  0  0  0
  5  7  1  0  0  0  0
  2  3  1  0  0  0  0
  2  4  1  0  0  0  0
  2  5  1  0  0  0  0
  1  2  1  0  0  0  0
 16 17  2  0  0  0  0
 16 18  1  0  0  0  0
 14 15  1  0  0  0  0
 11 12  1  0  0  0  0
 11 13  1  0  0  0  0
 11 14  1  0  0  0  0
  9 10  1  0  0  0  0
  9 11  1  0  0  0  0
  9 16  1  0  0  0  0
  7  8  1  0  0  0  0
  7  9  1  0  0  0  0
 20 21  1  0  0  0  0
 20 22  1  0  0  0  0
 20 23  1  0  0  0  0
 18 19  1  0  0  0  0
 18 20  1  0  0  0  0
M  END
$$$$
default_name
  -OEChem-01062215323D

 23 22  0     1  0  0  0  0  0999 V2000
   -2.6721   -3.7279    0.7212 H   0  0  0  0  0  0  0  0  0  0  0  0
   -2.6561   -2.6819    0.4162 C   0  0  0  0  0  0  0  0  0  0  0  0
   -3.2401   -2.0889    1.1172 H   0  0  0  0  0  0  0  0  0  0  0  0
   -3.0671   -2.5859   -0.5858 H   0  0  0  0  0  0  0  0  0  0  0  0
   -1.2261   -2.1939    0.4202 C   0  0  0  0  0  0  0  0  0  0  0  0
   -0.3181   -2.9519    0.7312 O   0  0  0  0  0  0  0  0  0  0  0  0
   -1.0281   -0.9259    0.0662 N   0  0  0  0  0  0  0  0  0  0  0  0
   -1.8301   -0.3519   -0.1548 H   0  0  0  0  0  0  0  0  0  0  0  0
    0.2709   -0.2409    0.0912 C   0  0  1  0  0  0  0  0  0  0  0  0
    1.0594   -0.9781   -0.0620 H   0  0  0  0  0  0  0  0  0  0  0  0
    0.3460    0.7781   -1.0533 C   0  0  0  0  0  0  0  0  0  0  0  0
    1.3499    1.2048   -1.0871 H   0  0  0  0  0  0  0  0  0  0  0  0
    0.1441    0.2771   -2.0017 H   0  0  0  0  0  0  0  0  0  0  0  0
   -0.5869    1.8247   -0.8597 O   0  0  0  0  0  0  0  0  0  0  0  0
   -0.3918    2.5235   -1.4934 H   0  0  0  0  0  0  0  0  0  0  0  0
    0.5028    0.4281    1.4563 C   0  0  0  0  0  0  0  0  0  0  0  0
   -0.3463    0.3299    2.3429 O   0  0  0  0  0  0  0  0  0  0  0  0
    1.6483    1.0948    1.6342 N   0  0  0  0  0  0  0  0  0  0  0  0
    2.2411    1.1998    0.8215 H   0  0  0  0  0  0  0  0  0  0  0  0
    2.0352    1.7683    2.8724 C   0  0  0  0  0  0  0  0  0  0  0  0
    1.8351    1.1169    3.7258 H   0  0  0  0  0  0  0  0  0  0  0  0
    3.0970    2.0152    2.8504 H   0  0  0  0  0  0  0  0  0  0  0  0
    1.4528    2.6847    2.9883 H   0  0  0  0  0  0  0  0  0  0  0  0
  5  6  2  0  0  0  0
  5  7  1  0  0  0  0
  2  3  1  0  0  0  0
  2  4  1  0  0  0  0
  2  5  1  0  0  0  0
  1  2  1  0  0  0  0
 16 17  2  0  0  0  0
 16 18  1  0  0  0  0
 14 15  1  0  0  0  0
 11 12  1  0  0  0  0
 11 13  1  0  0  0  0
 11 14  1  0  0  0  0
  9 10  1  0  0  0  0
  9 11  1  0  0  0  0
  9 16  1  0  0  0  0
  7  8  1  0  0  0  0
  7  9  1  0  0  0  0
 20 21  1  0  0  0  0
 20 22  1  0  0  0  0
 20 23  1  0  0  0  0
 18 19  1  0  0  0  0
 18 20  1  0  0  0  0
M  END
$$$$
default_name
  -OEChem-01062215323D

 23 22  0     1  0  0  0  0  0999 V2000
   -2.6721   -3.7279    0.7212 H   0  0  0  0  0  0  0  0  0  0  0  0
   -2.6561   -2.6819    0.4162 C   0  0  0  0  0  0  0  0  0  0  0  0
   -3.2401   -2.0889    1.1172 H   0  0  0  0  0  0  0  0  0  0  0  0
   -3.0671   -2.5859   -0.5858 H   0  0  0  0  0  0  0  0  0  0  0  0
   -1.2261   -2.1939    0.4202 C   0  0  0  0  0  0  0  0  0  0  0  0
   -0.3181   -2.9519    0.7312 O   0  0  0  0  0  0  0  0  0  0  0  0
   -1.0281   -0.9259    0.0662 N   0  0  0  0  0  0  0  0  0  0  0  0
   -1.8301   -0.3519   -0.1548 H   0  0  0  0  0  0  0  0  0  0  0  0
    0.2709   -0.2409    0.0912 C   0  0  1  0  0  0  0  0  0  0  0  0
    1.0594   -0.9781   -0.0620 H   0  0  0  0  0  0  0  0  0  0  0  0
    0.3460    0.7781   -1.0533 C   0  0  0  0  0  0  0  0  0  0  0  0
    1.3499    1.2048   -1.0871 H   0  0  0  0  0  0  0  0  0  0  0  0
    0.1441    0.2771   -2.0017 H   0  0  0  0  0  0  0  0  0  0  0  0
   -0.5869    1.8247   -0.8597 O   0  0  0  0  0  0  0  0  0  0  0  0
   -0.3918    2.5235   -1.4934 H   0  0  0  0  0  0  0  0  0  0  0  0
    0.5028    0.4281    1.4563 C   0  0  0  0  0  0  0  0  0  0  0  0
   -0.1918    0.1127    2.4231 O   0  0  0  0  0  0  0  0  0  0  0  0
    1.4793    1.3375    1.5440 N   0  0  0  0  0  0  0  0  0  0  0  0
    1.9332    1.5982    0.6786 H   0  0  0  0  0  0  0  0  0  0  0  0
    1.8451    2.0502    2.7665 C   0  0  0  0  0  0  0  0  0  0  0  0
    1.8998    1.3482    3.6014 H   0  0  0  0  0  0  0  0  0  0  0  0
    2.8128    2.5371    2.6429 H   0  0  0  0  0  0  0  0  0  0  0  0
    1.0872    2.8031    2.9924 H   0  0  0  0  0  0  0  0  0  0  0  0
  5  6  2  0  0  0  0
  5  7  1  0  0  0  0
  2  3  1  0  0  0  0
  2  4  1  0  0  0  0
  2  5  1  0  0  0  0
  1  2  1  0  0  0  0
 16 17  2  0  0  0  0
 16 18  1  0  0  0  0
 14 15  1  0  0  0  0
 11 12  1  0  0  0  0
 11 13  1  0  0  0  0
 11 14  1  0  0  0  0
  9 10  1  0  0  0  0
  9 11  1  0  0  0  0
  9 16  1  0  0  0  0
  7  8  1  0  0  0  0
  7  9  1  0  0  0  0
 20 21  1  0  0  0  0
 20 22  1  0  0  0  0
 20 23  1  0  0  0  0
 18 19  1  0  0  0  0
 18 20  1  0  0  0  0
M  END
$$$$
default_name
  -OEChem-01062215323D

 23 22  0     1  0  0  0  0  0999 V2000
   -2.6721   -3.7279    0.7212 H   0  0  0  0  0  0  0  0  0  0  0  0
   -2.6561   -2.6819    0.4162 C   0  0  0  0  0  0  0  0  0  0  0  0
   -3.2401   -2.0889    1.1172 H   0  0  0  0  0  0  0  0  0  0  0  0
   -3.0671   -2.5859   -0.5858 H   0  0  0  0  0  0  0  0  0  0  0  0
   -1.2261   -2.1939    0.4202 C   0  0  0  0  0  0  0  0  0  0  0  0
   -0.3181   -2.9519    0.7312 O   0  0  0  0  0  0  0  0  0  0  0  0
   -1.0281   -0.9259    0.0662 N   0  0  0  0  0  0  0  0  0  0  0  0
   -1.8301   -0.3519   -0.1548 H   0  0  0  0  0  0  0  0  0  0  0  0
    0.2709   -0.2409    0.0912 C   0  0  1  0  0  0  0  0  0  0  0  0
    1.0594   -0.9781   -0.0620 H   0  0  0  0  0  0  0  0  0  0  0  0
    0.3460    0.7781   -1.0533 C   0  0  0  0  0  0  0  0  0  0  0  0
    1.3499    1.2048   -1.0871 H   0  0  0  0  0  0  0  0  0  0  0  0
    0.1441    0.2771   -2.0017 H   0  0  0  0  0  0  0  0  0  0  0  0
   -0.5869    1.8247   -0.8597 O   0  0  0  0  0  0  0  0  0  0  0  0
   -0.3918    2.5235   -1.4934 H   0  0  0  0  0  0  0  0  0  0  0  0
    0.5028    0.4281    1.4563 C   0  0  0  0  0  0  0  0  0  0  0  0
    0.0163   -0.0647    2.4747 O   0  0  0  0  0  0  0  0  0  0  0  0
    1.2502    1.5367    1.4853 N   0  0  0  0  0  0  0  0  0  0  0  0
    1.5283    1.9178    0.5907 H   0  0  0  0  0  0  0  0  0  0  0  0
    1.5848    2.2829    2.6967 C   0  0  0  0  0  0  0  0  0  0  0  0
    1.8953    1.5914    3.4830 H   0  0  0  0  0  0  0  0  0  0  0  0
    2.3951    2.9841    2.4948 H   0  0  0  0  0  0  0  0  0  0  0  0
    0.7073    2.8333    3.0421 H   0  0  0  0  0  0  0  0  0  0  0  0
  5  6  2  0  0  0  0
  5  7  1  0  0  0  0
  2  3  1  0  0  0  0
  2  4  1  0  0  0  0
  2  5  1  0  0  0  0
  1  2  1  0  0  0  0
 16 17  2  0  0  0  0
 16 18  1  0  0  0  0
 14 15  1  0  0  0  0
 11 12  1  0  0  0  0
 11 13  1  0  0  0  0
 11 14  1  0  0  0  0
  9 10  1  0  0  0  0
  9 11  1  0  0  0  0
  9 16  1  0  0  0  0
  7  8  1  0  0  0  0
  7  9  1  0  0  0  0
 20 21  1  0  0  0  0
 20 22  1  0  0  0  0
 20 23  1  0  0  0  0
 18 19  1  0  0  0  0
 18 20  1  0  0  0  0
M  END
$$$$
default_name
  -OEChem-01062215323D

 23 22  0     1  0  0  0  0  0999 V2000
   -2.6721   -3.7279    0.7212 H   0  0  0  0  0  0  0  0  0  0  0  0
   -2.6561   -2.6819    0.4162 C   0  0  0  0  0  0  0  0  0  0  0  0
   -3.2401   -2.0889    1.1172 H   0  0  0  0  0  0  0  0  0  0  0  0
   -3.0671   -2.5859   -0.5858 H   0  0  0  0  0  0  0  0  0  0  0  0
   -1.2261   -2.1939    0.4202 C   0  0  0  0  0  0  0  0  0  0  0  0
   -0.3181   -2.9519    0.7312 O   0  0  0  0  0  0  0  0  0  0  0  0
   -1.0281   -0.9259    0.0662 N   0  0  0  0  0  0  0  0  0  0  0  0
   -1.8301   -0.3519   -0.1548 H   0  0  0  0  0  0  0  0  0  0  0  0
    0.2709   -0.2409    0.0912 C   0  0  1  0  0  0  0  0  0  0  0  0
    1.0594   -0.9781   -0.0620 H   0  0  0  0  0  0  0  0  0  0  0  0
    0.3460    0.7781   -1.0533 C   0  0  0  0  0  0  0  0  0  0  0  0
    1.3499    1.2048   -1.0871 H   0  0  0  0  0  0  0  0  0  0  0  0
    0.1441    0.2771   -2.0017 H   0  0  0  0  0  0  0  0  0  0  0  0
   -0.5869    1.8247   -0.8597 O   0  0  0  0  0  0  0  0  0  0  0  0
   -0.3918    2.5235   -1.4934 H   0  0  0  0  0  0  0  0  0  0  0  0
    0.5028    0.4281    1.4563 C   0  0  0  0  0  0  0  0  0  0  0  0
    0.2639   -0.1903    2.4942 O   0  0  0  0  0  0  0  0  0  0  0  0
    0.9765    1.6787    1.4622 N   0  0  0  0  0  0  0  0  0  0  0  0
    1.0538    2.1370    0.5639 H   0  0  0  0  0  0  0  0  0  0  0  0
    1.2721    2.4506    2.6677 C   0  0  0  0  0  0  0  0  0  0  0  0
    1.8216    1.8299    3.3786 H   0  0  0  0  0  0  0  0  0  0  0  0
    1.8722    3.3256    2.4163 H   0  0  0  0  0  0  0  0  0  0  0  0
    0.3390    2.7733    3.1341 H   0  0  0  0  0  0  0  0  0  0  0  0
  5  6  2  0  0  0  0
  5  7  1  0  0  0  0
  2  3  1  0  0  0  0
  2  4  1  0  0  0  0
  2  5  1  0  0  0  0
  1  2  1  0  0  0  0
 16 17  2  0  0  0  0
 16 18  1  0  0  0  0
 14 15  1  0  0  0  0
 11 12  1  0  0  0  0
 11 13  1  0  0  0  0
 11 14  1  0  0  0  0
  9 10  1  0  0  0  0
  9 11  1  0  0  0  0
  9 16  1  0  0  0  0
  7  8  1  0  0  0  0
  7  9  1  0  0  0  0
 20 21  1  0  0  0  0
 20 22  1  0  0  0  0
 20 23  1  0  0  0  0
 18 19  1  0  0  0  0
 18 20  1  0  0  0  0
M  END
$$$$
default_name
  -OEChem-01062215323D

 23 22  0     1  0  0  0  0  0999 V2000
   -2.6721   -3.7279    0.7212 H   0  0  0  0  0  0  0  0  0  0  0  0
   -2.6561   -2.6819    0.4162 C   0  0  0  0  0  0  0  0  0  0  0  0
   -3.2401   -2.0889    1.1172 H   0  0  0  0  0  0  0  0  0  0  0  0
   -3.0671   -2.5859   -0.5858 H   0  0  0  0  0  0  0  0  0  0  0  0
   -1.2261   -2.1939    0.4202 C   0  0  0  0  0  0  0  0  0  0  0  0
   -0.3181   -2.9519    0.7312 O   0  0  0  0  0  0  0  0  0  0  0  0
   -1.0281   -0.9259    0.0662 N   0  0  0  0  0  0  0  0  0  0  0  0
   -1.8301   -0.3519   -0.1548 H   0  0  0  0  0  0  0  0  0  0  0  0
    0.2709   -0.2409    0.0912 C   0  0  1  0  0  0  0  0  0  0  0  0
    1.0594   -0.9781   -0.0620 H   0  0  0  0  0  0  0  0  0  0  0  0
    0.3460    0.7781   -1.0533 C   0  0  0  0  0  0  0  0  0  0  0  0
    1.3499    1.2048   -1.0871 H   0  0  0  0  0  0  0  0  0  0  0  0
    0.1441    0.2771   -2.0017 H   0  0  0  0  0  0  0  0  0  0  0  0
   -0.5869    1.8247   -0.8597 O   0  0  0  0  0  0  0  0  0  0  0  0
   -0.3918    2.5235   -1.4934 H   0  0  0  0  0  0  0  0  0  0  0  0
    0.5028    0.4281    1.4563 C   0  0  0  0  0  0  0  0  0  0  0  0
    0.5342   -0.2555    2.4802 O   0  0  0  0  0  0  0  0  0  0  0  0
    0.6768    1.7539    1.4763 N   0  0  0  0  0  0  0  0  0  0  0  0
    0.5421    2.2407    0.6001 H   0  0  0  0  0  0  0  0  0  0  0  0
    0.9282    2.5418    2.6813 C   0  0  0  0  0  0  0  0  0  0  0  0
    1.6840    2.0474    3.2954 H   0  0  0  0  0  0  0  0  0  0  0  0
    1.2798    3.5384    2.4127 H   0  0  0  0  0  0  0  0  0  0  0  0
    0.0074    2.6271    3.2620 H   0  0  0  0  0  0  0  0  0  0  0  0
  5  6  2  0  0  0  0
  5  7  1  0  0  0  0
  2  3  1  0  0  0  0
  2  4  1  0  0  0  0
  2  5  1  0  0  0  0
  1  2  1  0  0  0  0
 16 17  2  0  0  0  0
 16 18  1  0  0  0  0
 14 15  1  0  0  0  0
 11 12  1  0  0  0  0
 11 13  1  0  0  0  0
 11 14  1  0  0  0  0
  9 10  1  0  0  0  0
  9 11  1  0  0  0  0
  9 16  1  0  0  0  0
  7  8  1  0  0  0  0
  7  9  1  0  0  0  0
 20 21  1  0  0  0  0
 20 22  1  0  0  0  0
 20 23  1  0  0  0  0
 18 19  1  0  0  0  0
 18 20  1  0  0  0  0
M  END
$$$$
default_name
  -OEChem-01062215323D

 23 22  0     1  0  0  0  0  0999 V2000
   -2.6721   -3.7279    0.7212 H   0  0  0  0  0  0  0  0  0  0  0  0
   -2.6561   -2.6819    0.4162 C   0  0  0  0  0  0  0  0  0  0  0  0
   -3.2401   -2.0889    1.1172 H   0  0  0  0  0  0  0  0  0  0  0  0
   -3.0671   -2.5859   -0.5858 H   0  0  0  0  0  0  0  0  0  0  0  0
   -1.2261   -2.1939    0.4202 C   0  0  0  0  0  0  0  0  0  0  0  0
   -0.3181   -2.9519    0.7312 O   0  0  0  0  0  0  0  0  0  0  0  0
   -1.0281   -0.9259    0.0662 N   0  0  0  0  0  0  0  0  0  0  0  0
   -1.8301   -0.3519   -0.1548 H   0  0  0  0  0  0  0  0  0  0  0  0
    0.2709   -0.2409    0.0912 C   0  0  1  0  0  0  0  0  0  0  0  0
    1.0594   -0.9781   -0.0620 H   0  0  0  0  0  0  0  0  0  0  0  0
    0.3460    0.7781   -1.0533 C   0  0  0  0  0  0  0  0  0  0  0  0
    1.3499    1.2048   -1.0871 H   0  0  0  0  0  0  0  0  0  0  0  0
    0.1441    0.2771   -2.0017 H   0  0  0  0  0  0  0  0  0  0  0  0
   -0.5869    1.8247   -0.8597 O   0  0  0  0  0  0  0  0  0  0  0  0
   -0.3918    2.5235   -1.4934 H   0  0  0  0  0  0  0  0  0  0  0  0
    0.5028    0.4281    1.4563 C   0  0  0  0  0  0  0  0  0  0  0  0
    0.8086   -0.2558    2.4338 O   0  0  0  0  0  0  0  0  0  0  0  0
    0.3717    1.7571    1.5265 N   0  0  0  0  0  0  0  0  0  0  0  0
    0.0280    2.2219    0.6966 H   0  0  0  0  0  0  0  0  0  0  0  0
    0.5767    2.5504    2.7368 C   0  0  0  0  0  0  0  0  0  0  0  0
    1.4917    2.2291    3.2391 H   0  0  0  0  0  0  0  0  0  0  0  0
    0.6583    3.6080    2.4841 H   0  0  0  0  0  0  0  0  0  0  0  0
   -0.2649    2.4047    3.4173 H   0  0  0  0  0  0  0  0  0  0  0  0
  5  6  2  0  0  0  0
  5  7  1  0  0  0  0
  2  3  1  0  0  0  0
  2  4  1  0  0  0  0
  2  5  1  0  0  0  0
  1  2  1  0  0  0  0
 16 17  2  0  0  0  0
 16 18  1  0  0  0  0
 14 15  1  0  0  0  0
 11 12  1  0  0  0  0
 11 13  1  0  0  0  0
 11 14  1  0  0  0  0
  9 10  1  0  0  0  0
  9 11  1  0  0  0  0
  9 16  1  0  0  0  0
  7  8  1  0  0  0  0
  7  9  1  0  0  0  0
 20 21  1  0  0  0  0
 20 22  1  0  0  0  0
 20 23  1  0  0  0  0
 18 19  1  0  0  0  0
 18 20  1  0  0  0  0
M  END
$$$$
default_name
  -OEChem-01062215323D

 23 22  0     1  0  0  0  0  0999 V2000
   -2.6721   -3.7279    0.7212 H   0  0  0  0  0  0  0  0  0  0  0  0
   -2.6561   -2.6819    0.4162 C   0  0  0  0  0  0  0  0  0  0  0  0
   -3.2401   -2.0889    1.1172 H   0  0  0  0  0  0  0  0  0  0  0  0
   -3.0671   -2.5859   -0.5858 H   0  0  0  0  0  0  0  0  0  0  0  0
   -1.2261   -2.1939    0.4202 C   0  0  0  0  0  0  0  0  0  0  0  0
   -0.3181   -2.9519    0.7312 O   0  0  0  0  0  0  0  0  0  0  0  0
   -1.0281   -0.9259    0.0662 N   0  0  0  0  0  0  0  0  0  0  0  0
   -1.8301   -0.3519   -0.1548 H   0  0  0  0  0  0  0  0  0  0  0  0
    0.2709   -0.2409    0.0912 C   0  0  1  0  0  0  0  0  0  0  0  0
    1.0594   -0.9781   -0.0620 H   0  0  0  0  0  0  0  0  0  0  0  0
    0.3460    0.7781   -1.0533 C   0  0  0  0  0  0  0  0  0  0  0  0
    1.3499    1.2048   -1.0871 H   0  0  0  0  0  0  0  0  0  0  0  0
    0.1441    0.2771   -2.0017 H   0  0  0  0  0  0  0  0  0  0  0  0
   -0.5869    1.8247   -0.8597 O   0  0  0  0  0  0  0  0  0  0  0  0
   -0.3918    2.5235   -1.4934 H   0  0  0  0  0  0  0  0  0  0  0  0
    0.5028    0.4281    1.4563 C   0  0  0  0  0  0  0  0  0  0  0  0
    1.0685   -0.1913    2.3580 O   0  0  0  0  0  0  0  0  0  0  0  0
    0.0819    1.6882    1.6095 N   0  0  0  0  0  0  0  0  0  0  0  0
   -0.4533    2.0818    0.8470 H   0  0  0  0  0  0  0  0  0  0  0  0
    0.2413    2.4758    2.8304 C   0  0  0  0  0  0  0  0  0  0  0  0
    1.2578    2.3627    3.2134 H   0  0  0  0  0  0  0  0  0  0  0  0
    0.0500    3.5296    2.6259 H   0  0  0  0  0  0  0  0  0  0  0  0
   -0.4593    2.1213    3.5892 H   0  0  0  0  0  0  0  0  0  0  0  0
  5  6  2  0  0  0  0
  5  7  1  0  0  0  0
  2  3  1  0  0  0  0
  2  4  1  0  0  0  0
  2  5  1  0  0  0  0
  1  2  1  0  0  0  0
 16 17  2  0  0  0  0
 16 18  1  0  0  0  0
 14 15  1  0  0  0  0
 11 12  1  0  0  0  0
 11 13  1  0  0  0  0
 11 14  1  0  0  0  0
  9 10  1  0  0  0  0
  9 11  1  0  0  0  0
  9 16  1  0  0  0  0
  7  8  1  0  0  0  0
  7  9  1  0  0  0  0
 20 21  1  0  0  0  0
 20 22  1  0  0  0  0
 20 23  1  0  0  0  0
 18 19  1  0  0  0  0
 18 20  1  0  0  0  0
M  END
$$$$
default_name
  -OEChem-01062215323D

 23 22  0     1  0  0  0  0  0999 V2000
   -2.6721   -3.7279    0.7212 H   0  0  0  0  0  0  0  0  0  0  0  0
   -2.6561   -2.6819    0.4162 C   0  0  0  0  0  0  0  0  0  0  0  0
   -3.2401   -2.0889    1.1172 H   0  0  0  0  0  0  0  0  0  0  0  0
   -3.0671   -2.5859   -0.5858 H   0  0  0  0  0  0  0  0  0  0  0  0
   -1.2261   -2.1939    0.4202 C   0  0  0  0  0  0  0  0  0  0  0  0
   -0.3181   -2.9519    0.7312 O   0  0  0  0  0  0  0  0  0  0  0  0
   -1.0281   -0.9259    0.0662 N   0  0  0  0  0  0  0  0  0  0  0  0
   -1.8301   -0.3519   -0.1548 H   0  0  0  0  0  0  0  0  0  0  0  0
    0.2709   -0.2409    0.0912 C   0  0  1  0  0  0  0  0  0  0  0  0
    1.0594   -0.9781   -0.0620 H   0  0  0  0  0  0  0  0  0  0  0  0
    0.3460    0.7781   -1.0533 C   0  0  0  0  0  0  0  0  0  0  0  0
    1.3499    1.2048   -1.0871 H   0  0  0  0  0  0  0  0  0  0  0  0
    0.1441    0.2771   -2.0017 H   0  0  0  0  0  0  0  0  0  0  0  0
   -0.5869    1.8247   -0.8597 O   0  0  0  0  0  0  0  0  0  0  0  0
   -0.3918    2.5235   -1.4934 H   0  0  0  0  0  0  0  0  0  0  0  0
    0.5028    0.4281    1.4563 C   0  0  0  0  0  0  0  0  0  0  0  0
    1.2962   -0.0662    2.2580 O   0  0  0  0  0  0  0  0  0  0  0  0
   -0.1728    1.5518    1.7196 N   0  0  0  0  0  0  0  0  0  0  0  0
   -0.8691    1.8301    1.0410 H   0  0  0  0  0  0  0  0  0  0  0  0
   -0.0549    2.3231    2.9556 C   0  0  0  0  0  0  0  0  0  0  0  0
    0.9983    2.4389    3.2201 H   0  0  0  0  0  0  0  0  0  0  0  0
   -0.5036    3.3087    2.8282 H   0  0  0  0  0  0  0  0  0  0  0  0
   -0.5627    1.7961    3.7661 H   0  0  0  0  0  0  0  0  0  0  0  0
  5  6  2  0  0  0  0
  5  7  1  0  0  0  0
  2  3  1  0  0  0  0
  2  4  1  0  0  0  0
  2  5  1  0  0  0  0
  1  2  1  0  0  0  0
 16 17  2  0  0  0  0
 16 18  1  0  0  0  0
 14 15  1  0  0  0  0
 11 12  1  0  0  0  0
 11 13  1  0  0  0  0
 11 14  1  0  0  0  0
  9 10  1  0  0  0  0
  9 11  1  0  0  0  0
  9 16  1  0  0  0  0
  7  8  1  0  0  0  0
  7  9  1  0  0  0  0
 20 21  1  0  0  0  0
 20 22  1  0  0  0  0
 20 23  1  0  0  0  0
 18 19  1  0  0  0  0
 18 20  1  0  0  0  0
M  END
$$$$
default_name
  -OEChem-01062215323D

 23 22  0     1  0  0  0  0  0999 V2000
   -2.6721   -3.7279    0.7212 H   0  0  0  0  0  0  0  0  0  0  0  0
   -2.6561   -2.6819    0.4162 C   0  0  0  0  0  0  0  0  0  0  0  0
   -3.2401   -2.0889    1.1172 H   0  0  0  0  0  0  0  0  0  0  0  0
   -3.0671   -2.5859   -0.5858 H   0  0  0  0  0  0  0  0  0  0  0  0
   -1.2261   -2.1939    0.4202 C   0  0  0  0  0  0  0  0  0  0  0  0
   -0.3181   -2.9519    0.7312 O   0  0  0  0  0  0  0  0  0  0  0  0
   -1.0281   -0.9259    0.0662 N   0  0  0  0  0  0  0  0  0  0  0  0
   -1.8301   -0.3519   -0.1548 H   0  0  0  0  0  0  0  0  0  0  0  0
    0.2709   -0.2409    0.0912 C   0  0  1  0  0  0  0  0  0  0  0  0
    1.0594   -0.9781   -0.0620 H   0  0  0  0  0  0  0  0  0  0  0  0
    0.3460    0.7781   -1.0533 C   0  0  0  0  0  0  0  0  0  0  0  0
    1.3499    1.2048   -1.0871 H   0  0  0  0  0  0  0  0  0  0  0  0
    0.1441    0.2771   -2.0017 H   0  0  0  0  0  0  0  0  0  0  0  0
   -0.5869    1.8247   -0.8597 O   0  0  0  0  0  0  0  0  0  0  0  0
   -0.3918    2.5235   -1.4934 H   0  0  0  0  0  0  0  0  0  0  0  0
    0.5028    0.4281    1.4563 C   0  0  0  0  0  0  0  0  0  0  0  0
    1.4762    0.1108    2.1407 O   0  0  0  0  0  0  0  0  0  0  0  0
   -0.3752    1.3572    1.8494 N   0  0  0  0  0  0  0  0  0  0  0  0
   -1.1911    1.4839    1.2653 H   0  0  0  0  0  0  0  0  0  0  0  0
   -0.2918    2.1025    3.1039 C   0  0  0  0  0  0  0  0  0  0  0  0
    0.7309    2.4527    3.2587 H   0  0  0  0  0  0  0  0  0  0  0  0
   -0.9647    2.9601    3.0773 H   0  0  0  0  0  0  0  0  0  0  0  0
   -0.5679    1.4514    3.9359 H   0  0  0  0  0  0  0  0  0  0  0  0
  5  6  2  0  0  0  0
  5  7  1  0  0  0  0
  2  3  1  0  0  0  0
  2  4  1  0  0  0  0
  2  5  1  0  0  0  0
  1  2  1  0  0  0  0
 16 17  2  0  0  0  0
 16 18  1  0  0  0  0
 14 15  1  0  0  0  0
 11 12  1  0  0  0  0
 11 13  1  0  0  0  0
 11 14  1  0  0  0  0
  9 10  1  0  0  0  0
  9 11  1  0  0  0  0
  9 16  1  0  0  0  0
  7  8  1  0  0  0  0
  7  9  1  0  0  0  0
 20 21  1  0  0  0  0
 20 22  1  0  0  0  0
 20 23  1  0  0  0  0
 18 19  1  0  0  0  0
 18 20  1  0  0  0  0
M  END
$$$$
default_name
  -OEChem-01062215323D

 23 22  0     1  0  0  0  0  0999 V2000
   -2.6721   -3.7279    0.7212 H   0  0  0  0  0  0  0  0  0  0  0  0
   -2.6561   -2.6819    0.4162 C   0  0  0  0  0  0  0  0  0  0  0  0
   -3.2401   -2.0889    1.1172 H   0  0  0  0  0  0  0  0  0  0  0  0
   -3.0671   -2.5859   -0.5858 H   0  0  0  0  0  0  0  0  0  0  0  0
   -1.2261   -2.1939    0.4202 C   0  0  0  0  0  0  0  0  0  0  0  0
   -0.3181   -2.9519    0.7312 O   0  0  0  0  0  0  0  0  0  0  0  0
   -1.0281   -0.9259    0.0662 N   0  0  0  0  0  0  0  0  0  0  0  0
   -1.8301   -0.3519   -0.1548 H   0  0  0  0  0  0  0  0  0  0  0  0
    0.2709   -0.2409    0.0912 C   0  0  1  0  0  0  0  0  0  0  0  0
    1.0594   -0.9781   -0.0620 H   0  0  0  0  0  0  0  0  0  0  0  0
    0.3460    0.7781   -1.0533 C   0  0  0  0  0  0  0  0  0  0  0  0
    1.3499    1.2048   -1.0871 H   0  0  0  0  0  0  0  0  0  0  0  0
    0.1441    0.2771   -2.0017 H   0  0  0  0  0  0  0  0  0  0  0  0
   -0.5869    1.8247   -0.8597 O   0  0  0  0  0  0  0  0  0  0  0  0
   -0.3918    2.5235   -1.4934 H   0  0  0  0  0  0  0  0  0  0  0  0
    0.5028    0.4281    1.4563 C   0  0  0  0  0  0  0  0  0  0  0  0
    1.5962    0.3277    2.0141 O   0  0  0  0  0  0  0  0  0  0  0  0
   -0.5113    1.1177    1.9899 N   0  0  0  0  0  0  0  0  0  0  0  0
   -1.3972    1.0667    1.5048 H   0  0  0  0  0  0  0  0  0  0  0  0
   -0.4533    1.8293    3.2652 C   0  0  0  0  0  0  0  0  0  0  0  0
    0.4738    2.4031    3.3267 H   0  0  0  0  0  0  0  0  0  0  0  0
   -1.3021    2.5078    3.3563 H   0  0  0  0  0  0  0  0  0  0  0  0
   -0.4746    1.1106    4.0870 H   0  0  0  0  0  0  0  0  0  0  0  0
  5  6  2  0  0  0  0
  5  7  1  0  0  0  0
  2  3  1  0  0  0  0
  2  4  1  0  0  0  0
  2  5  1  0  0  0  0
  1  2  1  0  0  0  0
 16 17  2  0  0  0  0
 16 18  1  0  0  0  0
 14 15  1  0  0  0  0
 11 12  1  0  0  0  0
 11 13  1  0  0  0  0
 11 14  1  0  0  0  0
  9 10  1  0  0  0  0
  9 11  1  0  0  0  0
  9 16  1  0  0  0  0
  7  8  1  0  0  0  0
  7  9  1  0  0  0  0
 20 21  1  0  0  0  0
 20 22  1  0  0  0  0
 20 23  1  0  0  0  0
 18 19  1  0  0  0  0
 18 20  1  0  0  0  0
M  END
$$$$
default_name
  -OEChem-01062215323D

 23 22  0     1  0  0  0  0  0999 V2000
   -2.6721   -3.7279    0.7212 H   0  0  0  0  0  0  0  0  0  0  0  0
   -2.6561   -2.6819    0.4162 C   0  0  0  0  0  0  0  0  0  0  0  0
   -3.2401   -2.0889    1.1172 H   0  0  0  0  0  0  0  0  0  0  0  0
   -3.0671   -2.5859   -0.5858 H   0  0  0  0  0  0  0  0  0  0  0  0
   -1.2261   -2.1939    0.4202 C   0  0  0  0  0  0  0  0  0  0  0  0
   -0.3181   -2.9519    0.7312 O   0  0  0  0  0  0  0  0  0  0  0  0
   -1.0281   -0.9259    0.0662 N   0  0  0  0  0  0  0  0  0  0  0  0
   -1.8301   -0.3519   -0.1548 H   0  0  0  0  0  0  0  0  0  0  0  0
    0.2709   -0.2409    0.0912 C   0  0  1  0  0  0  0  0  0  0  0  0
    1.0594   -0.9781   -0.0620 H   0  0  0  0  0  0  0  0  0  0  0  0
    0.3460    0.7781   -1.0533 C   0  0  0  0  0  0  0  0  0  0  0  0
    1.3499    1.2048   -1.0871 H   0  0  0  0  0  0  0  0  0  0  0  0
    0.1441    0.2771   -2.0017 H   0  0  0  0  0  0  0  0  0  0  0  0
   -0.5869    1.8247   -0.8597 O   0  0  0  0  0  0  0  0  0  0  0  0
   -0.3918    2.5235   -1.4934 H   0  0  0  0  0  0  0  0  0  0  0  0
    0.5028    0.4281    1.4563 C   0  0  0  0  0  0  0  0  0  0  0  0
    1.6479    0.5697    1.8867 O   0  0  0  0  0  0  0  0  0  0  0  0
   -0.5719    0.8496    2.1315 N   0  0  0  0  0  0  0  0  0  0  0  0
   -1.4736    0.6070    1.7430 H   0  0  0  0  0  0  0  0  0  0  0  0
   -0.5284    1.5220    3.4285 C   0  0  0  0  0  0  0  0  0  0  0  0
    0.2446    2.2934    3.4194 H   0  0  0  0  0  0  0  0  0  0  0  0
   -1.4926    1.9825    3.6461 H   0  0  0  0  0  0  0  0  0  0  0  0
   -0.2891    0.7970    4.2092 H   0  0  0  0  0  0  0  0  0  0  0  0
  5  6  2  0  0  0  0
  5  7  1  0  0  0  0
  2  3  1  0  0  0  0
  2  4  1  0  0  0  0
  2  5  1  0  0  0  0
  1  2  1  0  0  0  0
 16 17  2  0  0  0  0
 16 18  1  0  0  0  0
 14 15  1  0  0  0  0
 11 12  1  0  0  0  0
 11 13  1  0  0  0  0
 11 14  1  0  0  0  0
  9 10  1  0  0  0  0
  9 11  1  0  0  0  0
  9 16  1  0  0  0  0
  7  8  1  0  0  0  0
  7  9  1  0  0  0  0
 20 21  1  0  0  0  0
 20 22  1  0  0  0  0
 20 23  1  0  0  0  0
 18 19  1  0  0  0  0
 18 20  1  0  0  0  0
M  END
$$$$
default_name
  -OEChem-01062215323D

 23 22  0     1  0  0  0  0  0999 V2000
   -2.6721   -3.7279    0.7212 H   0  0  0  0  0  0  0  0  0  0  0  0
   -2.6561   -2.6819    0.4162 C   0  0  0  0  0  0  0  0  0  0  0  0
   -3.2401   -2.0889    1.1172 H   0  0  0  0  0  0  0  0  0  0  0  0
   -3.0671   -2.5859   -0.5858 H   0  0  0  0  0  0  0  0  0  0  0  0
   -1.2261   -2.1939    0.4202 C   0  0  0  0  0  0  0  0  0  0  0  0
   -0.3181   -2.9519    0.7312 O   0  0  0  0  0  0  0  0  0  0  0  0
   -1.0281   -0.9259    0.0662 N   0  0  0  0  0  0  0  0  0  0  0  0
   -1.8301   -0.3519   -0.1548 H   0  0  0  0  0  0  0  0  0  0  0  0
    0.2709   -0.2409    0.0912 C   0  0  1  0  0  0  0  0  0  0  0  0
    1.0594   -0.9781   -0.0620 H   0  0  0  0  0  0  0  0  0  0  0  0
    0.3460    0.7781   -1.0533 C   0  0  0  0  0  0  0  0  0  0  0  0
    1.3499    1.2048   -1.0871 H   0  0  0  0  0  0  0  0  0  0  0  0
    0.1441    0.2771   -2.0017 H   0  0  0  0  0  0  0  0  0  0  0  0
   -0.5869    1.8247   -0.8597 O   0  0  0  0  0  0  0  0  0  0  0  0
   -0.3918    2.5235   -1.4934 H   0  0  0  0  0  0  0  0  0  0  0  0
    0.5028    0.4281    1.4563 C   0  0  0  0  0  0  0  0  0  0  0  0
    1.6280    0.8203    1.7673 O   0  0  0  0  0  0  0  0  0  0  0  0
   -0.5529    0.5712    2.2647 N   0  0  0  0  0  0  0  0  0  0  0  0
   -1.4149    0.1361    1.9638 H   0  0  0  0  0  0  0  0  0  0  0  0
   -0.5119    1.2015    3.5828 C   0  0  0  0  0  0  0  0  0  0  0  0
    0.0587    2.1312    3.5305 H   0  0  0  0  0  0  0  0  0  0  0  0
   -1.5232    1.4200    3.9269 H   0  0  0  0  0  0  0  0  0  0  0  0
   -0.0242    0.5318    4.2941 H   0  0  0  0  0  0  0  0  0  0  0  0
  5  6  2  0  0  0  0
  5  7  1  0  0  0  0
  2  3  1  0  0  0  0
  2  4  1  0  0  0  0
  2  5  1  0  0  0  0
  1  2  1  0  0  0  0
 16 17  2  0  0  0  0
 16 18  1  0  0  0  0
 14 15  1  0  0  0  0
 11 12  1  0  0  0  0
 11 13  1  0  0  0  0
 11 14  1  0  0  0  0
  9 10  1  0  0  0  0
  9 11  1  0  0  0  0
  9 16  1  0  0  0  0
  7  8  1  0  0  0  0
  7  9  1  0  0  0  0
 20 21  1  0  0  0  0
 20 22  1  0  0  0  0
 20 23  1  0  0  0  0
 18 19  1  0  0  0  0
 18 20  1  0  0  0  0
M  END
$$$$
default_name
  -OEChem-01062215323D

 23 22  0     1  0  0  0  0  0999 V2000
   -2.6721   -3.7279    0.7212 H   0  0  0  0  0  0  0  0  0  0  0  0
   -2.6561   -2.6819    0.4162 C   0  0  0  0  0  0  0  0  0  0  0  0
   -3.2401   -2.0889    1.1172 H   0  0  0  0  0  0  0  0  0  0  0  0
   -3.0671   -2.5859   -0.5858 H   0  0  0  0  0  0  0  0  0  0  0  0
   -1.2261   -2.1939    0.4202 C   0  0  0  0  0  0  0  0  0  0  0  0
   -0.3181   -2.9519    0.7312 O   0  0  0  0  0  0  0  0  0  0  0  0
   -1.0281   -0.9259    0.0662 N   0  0  0  0  0  0  0  0  0  0  0  0
   -1.8301   -0.3519   -0.1548 H   0  0  0  0  0  0  0  0  0  0  0  0
    0.2709   -0.2409    0.0912 C   0  0  1  0  0  0  0  0  0  0  0  0
    1.0594   -0.9781   -0.0620 H   0  0  0  0  0  0  0  0  0  0  0  0
    0.3460    0.7781   -1.0533 C   0  0  0  0  0  0  0  0  0  0  0  0
    1.3499    1.2048   -1.0871 H   0  0  0  0  0  0  0  0  0  0  0  0
    0.1441    0.2771   -2.0017 H   0  0  0  0  0  0  0  0  0  0  0  0
   -0.5869    1.8247   -0.8597 O   0  0  0  0  0  0  0  0  0  0  0  0
   -0.3918    2.5235   -1.4934 H   0  0  0  0  0  0  0  0  0  0  0  0
    0.5028    0.4281    1.4563 C   0  0  0  0  0  0  0  0  0  0  0  0
    1.5377    1.0625    1.6639 O   0  0  0  0  0  0  0  0  0  0  0  0
   -0.4556    0.3014    2.3804 N   0  0  0  0  0  0  0  0  0  0  0  0
   -1.2252   -0.3138    2.1520 H   0  0  0  0  0  0  0  0  0  0  0  0
   -0.4050    0.8897    3.7174 C   0  0  0  0  0  0  0  0  0  0  0  0
   -0.0710    1.9275    3.6523 H   0  0  0  0  0  0  0  0  0  0  0  0
   -1.3920    0.8586    4.1797 H   0  0  0  0  0  0  0  0  0  0  0  0
    0.3022    0.3333    4.3360 H   0  0  0  0  0  0  0  0  0  0  0  0
  5  6  2  0  0  0  0
  5  7  1  0  0  0  0
  2  3  1  0  0  0  0
  2  4  1  0  0  0  0
  2  5  1  0  0  0  0
  1  2  1  0  0  0  0
 16 17  2  0  0  0  0
 16 18  1  0  0  0  0
 14 15  1  0  0  0  0
 11 12  1  0  0  0  0
 11 13  1  0  0  0  0
 11 14  1  0  0  0  0
  9 10  1  0  0  0  0
  9 11  1  0  0  0  0
  9 16  1  0  0  0  0
  7  8  1  0  0  0  0
  7  9  1  0  0  0  0
 20 21  1  0  0  0  0
 20 22  1  0  0  0  0
 20 23  1  0  0  0  0
 18 19  1  0  0  0  0
 18 20  1  0  0  0  0
M  END
$$$$
default_name
  -OEChem-01062215323D

 23 22  0     1  0  0  0  0  0999 V2000
   -2.6721   -3.7279    0.7212 H   0  0  0  0  0  0  0  0  0  0  0  0
   -2.6561   -2.6819    0.4162 C   0  0  0  0  0  0  0  0  0  0  0  0
   -3.2401   -2.0889    1.1172 H   0  0  0  0  0  0  0  0  0  0  0  0
   -3.0671   -2.5859   -0.5858 H   0  0  0  0  0  0  0  0  0  0  0  0
   -1.2261   -2.1939    0.4202 C   0  0  0  0  0  0  0  0  0  0  0  0
   -0.3181   -2.9519    0.7312 O   0  0  0  0  0  0  0  0  0  0  0  0
   -1.0281   -0.9259    0.0662 N   0  0  0  0  0  0  0  0  0  0  0  0
   -1.8301   -0.3519   -0.1548 H   0  0  0  0  0  0  0  0  0  0  0  0
    0.2709   -0.2409    0.0912 C   0  0  1  0  0  0  0  0  0  0  0  0
    1.0594   -0.9781   -0.0620 H   0  0  0  0  0  0  0  0  0  0  0  0
    0.3460    0.7781   -1.0533 C   0  0  0  0  0  0  0  0  0  0  0  0
    1.3499    1.2048   -1.0871 H   0  0  0  0  0  0  0  0  0  0  0  0
    0.1441    0.2771   -2.0017 H   0  0  0  0  0  0  0  0  0  0  0  0
   -0.5869    1.8247   -0.8597 O   0  0  0  0  0  0  0  0  0  0  0  0
   -0.3918    2.5235   -1.4934 H   0  0  0  0  0  0  0  0  0  0  0  0
    0.5028    0.4281    1.4563 C   0  0  0  0  0  0  0  0  0  0  0  0
    1.3833    1.2797    1.5837 O   0  0  0  0  0  0  0  0  0  0  0  0
   -0.2866    0.0586    2.4707 N   0  0  0  0  0  0  0  0  0  0  0  0
   -0.9173   -0.7122    2.2949 H   0  0  0  0  0  0  0  0  0  0  0  0
   -0.2149    0.6079    3.8232 C   0  0  0  0  0  0  0  0  0  0  0  0
   -0.1358    1.6961    3.7767 H   0  0  0  0  0  0  0  0  0  0  0  0
   -1.1079    0.3367    4.3872 H   0  0  0  0  0  0  0  0  0  0  0  0
    0.6678    0.2149    4.3319 H   0  0  0  0  0  0  0  0  0  0  0  0
  5  6  2  0  0  0  0
  5  7  1  0  0  0  0
  2  3  1  0  0  0  0
  2  4  1  0  0  0  0
  2  5  1  0  0  0  0
  1  2  1  0  0  0  0
 16 17  2  0  0  0  0
 16 18  1  0  0  0  0
 14 15  1  0  0  0  0
 11 12  1  0  0  0  0
 11 13  1  0  0  0  0
 11 14  1  0  0  0  0
  9 10  1  0  0  0  0
  9 11  1  0  0  0  0
  9 16  1  0  0  0  0
  7  8  1  0  0  0  0
  7  9  1  0  0  0  0
 20 21  1  0  0  0  0
 20 22  1  0  0  0  0
 20 23  1  0  0  0  0
 18 19  1  0  0  0  0
 18 20  1  0  0  0  0
M  END
$$$$
default_name
  -OEChem-01062215323D

 23 22  0     1  0  0  0  0  0999 V2000
   -2.6721   -3.7279    0.7212 H   0  0  0  0  0  0  0  0  0  0  0  0
   -2.6561   -2.6819    0.4162 C   0  0  0  0  0  0  0  0  0  0  0  0
   -3.2401   -2.0889    1.1172 H   0  0  0  0  0  0  0  0  0  0  0  0
   -3.0671   -2.5859   -0.5858 H   0  0  0  0  0  0  0  0  0  0  0  0
   -1.2261   -2.1939    0.4202 C   0  0  0  0  0  0  0  0  0  0  0  0
   -0.3181   -2.9519    0.7312 O   0  0  0  0  0  0  0  0  0  0  0  0
   -1.0281   -0.9259    0.0662 N   0  0  0  0  0  0  0  0  0  0  0  0
   -1.8301   -0.3519   -0.1548 H   0  0  0  0  0  0  0  0  0  0  0  0
    0.2709   -0.2409    0.0912 C   0  0  1  0  0  0  0  0  0  0  0  0
    1.0594   -0.9781   -0.0620 H   0  0  0  0  0  0  0  0  0  0  0  0
    0.3460    0.7781   -1.0533 C   0  0  0  0  0  0  0  0  0  0  0  0
    1.3499    1.2048   -1.0871 H   0  0  0  0  0  0  0  0  0  0  0  0
    0.1441    0.2771   -2.0017 H   0  0  0  0  0  0  0  0  0  0  0  0
   -0.5869    1.8247   -0.8597 O   0  0  0  0  0  0  0  0  0  0  0  0
   -0.3918    2.5235   -1.4934 H   0  0  0  0  0  0  0  0  0  0  0  0
    0.5028    0.4281    1.4563 C   0  0  0  0  0  0  0  0  0  0  0  0
    1.1751    1.4571    1.5321 O   0  0  0  0  0  0  0  0  0  0  0  0
   -0.0574   -0.1405    2.5293 N   0  0  0  0  0  0  0  0  0  0  0  0
   -0.5124   -1.0318    2.3828 H   0  0  0  0  0  0  0  0  0  0  0  0
    0.0453    0.3752    3.8930 C   0  0  0  0  0  0  0  0  0  0  0  0
   -0.1312    1.4529    3.8951 H   0  0  0  0  0  0  0  0  0  0  0  0
   -0.6901   -0.1102    4.5352 H   0  0  0  0  0  0  0  0  0  0  0  0
    1.0477    0.1847    4.2822 H   0  0  0  0  0  0  0  0  0  0  0  0
  5  6  2  0  0  0  0
  5  7  1  0  0  0  0
  2  3  1  0  0  0  0
  2  4  1  0  0  0  0
  2  5  1  0  0  0  0
  1  2  1  0  0  0  0
 16 17  2  0  0  0  0
 16 18  1  0  0  0  0
 14 15  1  0  0  0  0
 11 12  1  0  0  0  0
 11 13  1  0  0  0  0
 11 14  1  0  0  0  0
  9 10  1  0  0  0  0
  9 11  1  0  0  0  0
  9 16  1  0  0  0  0
  7  8  1  0  0  0  0
  7  9  1  0  0  0  0
 20 21  1  0  0  0  0
 20 22  1  0  0  0  0
 20 23  1  0  0  0  0
 18 19  1  0  0  0  0
 18 20  1  0  0  0  0
M  END
$$$$
default_name
  -OEChem-01062215323D

 23 22  0     1  0  0  0  0  0999 V2000
   -2.6721   -3.7279    0.7212 H   0  0  0  0  0  0  0  0  0  0  0  0
   -2.6561   -2.6819    0.4162 C   0  0  0  0  0  0  0  0  0  0  0  0
   -3.2401   -2.0889    1.1172 H   0  0  0  0  0  0  0  0  0  0  0  0
   -3.0671   -2.5859   -0.5858 H   0  0  0  0  0  0  0  0  0  0  0  0
   -1.2261   -2.1939    0.4202 C   0  0  0  0  0  0  0  0  0  0  0  0
   -0.3181   -2.9519    0.7312 O   0  0  0  0  0  0  0  0  0  0  0  0
   -1.0281   -0.9259    0.0662 N   0  0  0  0  0  0  0  0  0  0  0  0
   -1.8301   -0.3519   -0.1548 H   0  0  0  0  0  0  0  0  0  0  0  0
    0.2709   -0.2409    0.0912 C   0  0  1  0  0  0  0  0  0  0  0  0
    1.0594   -0.9781   -0.0620 H   0  0  0  0  0  0  0  0  0  0  0  0
    0.3460    0.7781   -1.0533 C   0  0  0  0  0  0  0  0  0  0  0  0
    1.3499    1.2048   -1.0871 H   0  0  0  0  0  0  0  0  0  0  0  0
    0.1441    0.2771   -2.0017 H   0  0  0  0  0  0  0  0  0  0  0  0
   -0.5869    1.8247   -0.8597 O   0  0  0  0  0  0  0  0  0  0  0  0
   -0.3918    2.5235   -1.4934 H   0  0  0  0  0  0  0  0  0  0  0  0
    0.5028    0.4281    1.4563 C   0  0  0  0  0  0  0  0  0  0  0  0
    0.9275    1.5827    1.5127 O   0  0  0  0  0  0  0  0  0  0  0  0
    0.2163   -0.2825    2.5524 N   0  0  0  0  0  0  0  0  0  0  0  0
   -0.0379   -1.2510    2.4096 H   0  0  0  0  0  0  0  0  0  0  0  0
    0.3581    0.2075    3.9221 C   0  0  0  0  0  0  0  0  0  0  0  0
   -0.0575    1.2145    3.9994 H   0  0  0  0  0  0  0  0  0  0  0  0
   -0.1672   -0.4518    4.6138 H   0  0  0  0  0  0  0  0  0  0  0  0
    1.4160    0.2447    4.1902 H   0  0  0  0  0  0  0  0  0  0  0  0
  5  6  2  0  0  0  0
  5  7  1  0  0  0  0
  2  3  1  0  0  0  0
  2  4  1  0  0  0  0
  2  5  1  0  0  0  0
  1  2  1  0  0  0  0
 16 17  2  0  0  0  0
 16 18  1  0  0  0  0
 14 15  1  0  0  0  0
 11 12  1  0  0  0  0
 11 13  1  0  0  0  0
 11 14  1  0  0  0  0
  9 10  1  0  0  0  0
  9 11  1  0  0  0  0
  9 16  1  0  0  0  0
  7  8  1  0  0  0  0
  7  9  1  0  0  0  0
 20 21  1  0  0  0  0
 20 22  1  0  0  0  0
 20 23  1  0  0  0  0
 18 19  1  0  0  0  0
 18 20  1  0  0  0  0
M  END
$$$$
default_name
  -OEChem-01062215323D

 23 22  0     1  0  0  0  0  0999 V2000
   -2.6721   -3.7279    0.7212 H   0  0  0  0  0  0  0  0  0  0  0  0
   -2.6561   -2.6819    0.4162 C   0  0  0  0  0  0  0  0  0  0  0  0
   -3.2401   -2.0889    1.1172 H   0  0  0  0  0  0  0  0  0  0  0  0
   -3.0671   -2.5859   -0.5858 H   0  0  0  0  0  0  0  0  0  0  0  0
   -1.2261   -2.1939    0.4202 C   0  0  0  0  0  0  0  0  0  0  0  0
   -0.3181   -2.9519    0.7312 O   0  0  0  0  0  0  0  0  0  0  0  0
   -1.0281   -0.9259    0.0662 N   0  0  0  0  0  0  0  0  0  0  0  0
   -1.8301   -0.3519   -0.1548 H   0  0  0  0  0  0  0  0  0  0  0  0
    0.2709   -0.2409    0.0912 C   0  0  1  0  0  0  0  0  0  0  0  0
    1.0594   -0.9781   -0.0620 H   0  0  0  0  0  0  0  0  0  0  0  0
    0.3460    0.7781   -1.0533 C   0  0  0  0  0  0  0  0  0  0  0  0
    1.3499    1.2048   -1.0871 H   0  0  0  0  0  0  0  0  0  0  0  0
    0.1441    0.2771   -2.0017 H   0  0  0  0  0  0  0  0  0  0  0  0
   -0.5869    1.8247   -0.8597 O   0  0  0  0  0  0  0  0  0  0  0  0
   -0.3918    2.5235   -1.4934 H   0  0  0  0  0  0  0  0  0  0  0  0
    0.5028    0.4281    1.4563 C   0  0  0  0  0  0  0  0  0  0  0  0
    0.6572    1.6479    1.5266 O   0  0  0  0  0  0  0  0  0  0  0  0
    0.5159   -0.3577    2.5384 N   0  0  0  0  0  0  0  0  0  0  0  0
    0.4738   -1.3547    2.3735 H   0  0  0  0  0  0  0  0  0  0  0  0
    0.7019    0.1162    3.9084 C   0  0  0  0  0  0  0  0  0  0  0  0
    0.0801    0.9970    4.0826 H   0  0  0  0  0  0  0  0  0  0  0  0
    0.4252   -0.6646    4.6174 H   0  0  0  0  0  0  0  0  0  0  0  0
    1.7475    0.3909    4.0622 H   0  0  0  0  0  0  0  0  0  0  0  0
  5  6  2  0  0  0  0
  5  7  1  0  0  0  0
  2  3  1  0  0  0  0
  2  4  1  0  0  0  0
  2  5  1  0  0  0  0
  1  2  1  0  0  0  0
 16 17  2  0  0  0  0
 16 18  1  0  0  0  0
 14 15  1  0  0  0  0
 11 12  1  0  0  0  0
 11 13  1  0  0  0  0
 11 14  1  0  0  0  0
  9 10  1  0  0  0  0
  9 11  1  0  0  0  0
  9 16  1  0  0  0  0
  7  8  1  0  0  0  0
  7  9  1  0  0  0  0
 20 21  1  0  0  0  0
 20 22  1  0  0  0  0
 20 23  1  0  0  0  0
 18 19  1  0  0  0  0
 18 20  1  0  0  0  0
M  END
$$$$
default_name
  -OEChem-01062215323D

 23 22  0     1  0  0  0  0  0999 V2000
   -2.6721   -3.7279    0.7212 H   0  0  0  0  0  0  0  0  0  0  0  0
   -2.6561   -2.6819    0.4162 C   0  0  0  0  0  0  0  0  0  0  0  0
   -3.2401   -2.0889    1.1172 H   0  0  0  0  0  0  0  0  0  0  0  0
   -3.0671   -2.5859   -0.5858 H   0  0  0  0  0  0  0  0  0  0  0  0
   -1.2261   -2.1939    0.4202 C   0  0  0  0  0  0  0  0  0  0  0  0
   -0.3181   -2.9519    0.7312 O   0  0  0  0  0  0  0  0  0  0  0  0
   -1.0281   -0.9259    0.0662 N   0  0  0  0  0  0  0  0  0  0  0  0
   -1.8301   -0.3519   -0.1548 H   0  0  0  0  0  0  0  0  0  0  0  0
    0.2709   -0.2409    0.0912 C   0  0  1  0  0  0  0  0  0  0  0  0
    1.0594   -0.9781   -0.0620 H   0  0  0  0  0  0  0  0  0  0  0  0
    0.3460    0.7781   -1.0533 C   0  0  0  0  0  0  0  0  0  0  0  0
    1.3499    1.2048   -1.0871 H   0  0  0  0  0  0  0  0  0  0  0  0
    0.1441    0.2771   -2.0017 H   0  0  0  0  0  0  0  0  0  0  0  0
   -0.5869    1.8247   -0.8597 O   0  0  0  0  0  0  0  0  0  0  0  0
   -0.3918    2.5235   -1.4934 H   0  0  0  0  0  0  0  0  0  0  0  0
    0.5028    0.4281    1.4563 C   0  0  0  0  0  0  0  0  0  0  0  0
    0.3828    1.6482    1.5731 O   0  0  0  0  0  0  0  0  0  0  0  0
    0.8210   -0.3610    2.4881 N   0  0  0  0  0  0  0  0  0  0  0  0
    0.9878   -1.3359    2.2769 H   0  0  0  0  0  0  0  0  0  0  0  0
    1.0535    0.1076    3.8529 C   0  0  0  0  0  0  0  0  0  0  0  0
    0.2724    0.8152    4.1390 H   0  0  0  0  0  0  0  0  0  0  0  0
    1.0467   -0.7342    4.5459 H   0  0  0  0  0  0  0  0  0  0  0  0
    2.0198    0.6133    3.9070 H   0  0  0  0  0  0  0  0  0  0  0  0
  5  6  2  0  0  0  0
  5  7  1  0  0  0  0
  2  3  1  0  0  0  0
  2  4  1  0  0  0  0
  2  5  1  0  0  0  0
  1  2  1  0  0  0  0
 16 17  2  0  0  0  0
 16 18  1  0  0  0  0
 14 15  1  0  0  0  0
 11 12  1  0  0  0  0
 11 13  1  0  0  0  0
 11 14  1  0  0  0  0
  9 10  1  0  0  0  0
  9 11  1  0  0  0  0
  9 16  1  0  0  0  0
  7  8  1  0  0  0  0
  7  9  1  0  0  0  0
 20 21  1  0  0  0  0
 20 22  1  0  0  0  0
 20 23  1  0  0  0  0
 18 19  1  0  0  0  0
 18 20  1  0  0  0  0
M  END
$$$$
default_name
  -OEChem-01062215323D

 23 22  0     1  0  0  0  0  0999 V2000
   -2.6721   -3.7279    0.7212 H   0  0  0  0  0  0  0  0  0  0  0  0
   -2.6561   -2.6819    0.4162 C   0  0  0  0  0  0  0  0  0  0  0  0
   -3.2401   -2.0889    1.1172 H   0  0  0  0  0  0  0  0  0  0  0  0
   -3.0671   -2.5859   -0.5858 H   0  0  0  0  0  0  0  0  0  0  0  0
   -1.2261   -2.1939    0.4202 C   0  0  0  0  0  0  0  0  0  0  0  0
   -0.3181   -2.9519    0.7312 O   0  0  0  0  0  0  0  0  0  0  0  0
   -1.0281   -0.9259    0.0662 N   0  0  0  0  0  0  0  0  0  0  0  0
   -1.8301   -0.3519   -0.1548 H   0  0  0  0  0  0  0  0  0  0  0  0
    0.2709   -0.2409    0.0912 C   0  0  1  0  0  0  0  0  0  0  0  0
    1.0594   -0.9781   -0.0620 H   0  0  0  0  0  0  0  0  0  0  0  0
    0.3460    0.7781   -1.0533 C   0  0  0  0  0  0  0  0  0  0  0  0
    1.3499    1.2048   -1.0871 H   0  0  0  0  0  0  0  0  0  0  0  0
    0.1441    0.2771   -2.0017 H   0  0  0  0  0  0  0  0  0  0  0  0
   -0.5869    1.8247   -0.8597 O   0  0  0  0  0  0  0  0  0  0  0  0
   -0.3918    2.5235   -1.4934 H   0  0  0  0  0  0  0  0  0  0  0  0
    0.5028    0.4281    1.4563 C   0  0  0  0  0  0  0  0  0  0  0  0
    0.1229    1.5836    1.6489 O   0  0  0  0  0  0  0  0  0  0  0  0
    1.1108   -0.2920    2.4051 N   0  0  0  0  0  0  0  0  0  0  0  0
    1.4692   -1.1958    2.1265 H   0  0  0  0  0  0  0  0  0  0  0  0
    1.3888    0.1822    3.7594 C   0  0  0  0  0  0  0  0  0  0  0  0
    0.5063    0.6817    4.1647 H   0  0  0  0  0  0  0  0  0  0  0  0
    1.6550   -0.6558    4.4042 H   0  0  0  0  0  0  0  0  0  0  0  0
    2.2143    0.8967    3.7351 H   0  0  0  0  0  0  0  0  0  0  0  0
  5  6  2  0  0  0  0
  5  7  1  0  0  0  0
  2  3  1  0  0  0  0
  2  4  1  0  0  0  0
  2  5  1  0  0  0  0
  1  2  1  0  0  0  0
 16 17  2  0  0  0  0
 16 18  1  0  0  0  0
 14 15  1  0  0  0  0
 11 12  1  0  0  0  0
 11 13  1  0  0  0  0
 11 14  1  0  0  0  0
  9 10  1  0  0  0  0
  9 11  1  0  0  0  0
  9 16  1  0  0  0  0
  7  8  1  0  0  0  0
  7  9  1  0  0  0  0
 20 21  1  0  0  0  0
 20 22  1  0  0  0  0
 20 23  1  0  0  0  0
 18 19  1  0  0  0  0
 18 20  1  0  0  0  0
M  END
$$$$
default_name
  -OEChem-01062215323D

 23 22  0     1  0  0  0  0  0999 V2000
   -2.6721   -3.7279    0.7212 H   0  0  0  0  0  0  0  0  0  0  0  0
   -2.6561   -2.6819    0.4162 C   0  0  0  0  0  0  0  0  0  0  0  0
   -3.2401   -2.0889    1.1172 H   0  0  0  0  0  0  0  0  0  0  0  0
   -3.0671   -2.5859   -0.5858 H   0  0  0  0  0  0  0  0  0  0  0  0
   -1.2261   -2.1939    0.4202 C   0  0  0  0  0  0  0  0  0  0  0  0
   -0.3181   -2.9519    0.7312 O   0  0  0  0  0  0  0  0  0  0  0  0
   -1.0281   -0.9259    0.0662 N   0  0  0  0  0  0  0  0  0  0  0  0
   -1.8301   -0.3519   -0.1548 H   0  0  0  0  0  0  0  0  0  0  0  0
    0.2709   -0.2409    0.0912 C   0  0  1  0  0  0  0  0  0  0  0  0
    1.0594   -0.9781   -0.0620 H   0  0  0  0  0  0  0  0  0  0  0  0
    0.3460    0.7781   -1.0533 C   0  0  0  0  0  0  0  0  0  0  0  0
    1.3499    1.2048   -1.0871 H   0  0  0  0  0  0  0  0  0  0  0  0
    0.1441    0.2771   -2.0017 H   0  0  0  0  0  0  0  0  0  0  0  0
   -0.5869    1.8247   -0.8597 O   0  0  0  0  0  0  0  0  0  0  0  0
   -0.3918    2.5235   -1.4934 H   0  0  0  0  0  0  0  0  0  0  0  0
    0.5028    0.4281    1.4563 C   0  0  0  0  0  0  0  0  0  0  0  0
   -0.1048    1.4586    1.7488 O   0  0  0  0  0  0  0  0  0  0  0  0
    1.3656   -0.1556    2.2950 N   0  0  0  0  0  0  0  0  0  0  0  0
    1.8850   -0.9441    1.9326 H   0  0  0  0  0  0  0  0  0  0  0  0
    1.6851    0.3350    3.6342 C   0  0  0  0  0  0  0  0  0  0  0  0
    0.7658    0.6054    4.1580 H   0  0  0  0  0  0  0  0  0  0  0  0
    2.2085   -0.4348    4.2019 H   0  0  0  0  0  0  0  0  0  0  0  0
    2.3176    1.2219    3.5582 H   0  0  0  0  0  0  0  0  0  0  0  0
  5  6  2  0  0  0  0
  5  7  1  0  0  0  0
  2  3  1  0  0  0  0
  2  4  1  0  0  0  0
  2  5  1  0  0  0  0
  1  2  1  0  0  0  0
 16 17  2  0  0  0  0
 16 18  1  0  0  0  0
 14 15  1  0  0  0  0
 11 12  1  0  0  0  0
 11 13  1  0  0  0  0
 11 14  1  0  0  0  0
  9 10  1  0  0  0  0
  9 11  1  0  0  0  0
  9 16  1  0  0  0  0
  7  8  1  0  0  0  0
  7  9  1  0  0  0  0
 20 21  1  0  0  0  0
 20 22  1  0  0  0  0
 20 23  1  0  0  0  0
 18 19  1  0  0  0  0
 18 20  1  0  0  0  0
M  END
$$$$
default_name
  -OEChem-01062215323D

 23 22  0     1  0  0  0  0  0999 V2000
   -2.6721   -3.7279    0.7212 H   0  0  0  0  0  0  0  0  0  0  0  0
   -2.6561   -2.6819    0.4162 C   0  0  0  0  0  0  0  0  0  0  0  0
   -3.2401   -2.0889    1.1172 H   0  0  0  0  0  0  0  0  0  0  0  0
   -3.0671   -2.5859   -0.5858 H   0  0  0  0  0  0  0  0  0  0  0  0
   -1.2261   -2.1939    0.4202 C   0  0  0  0  0  0  0  0  0  0  0  0
   -0.3181   -2.9519    0.7312 O   0  0  0  0  0  0  0  0  0  0  0  0
   -1.0281   -0.9259    0.0662 N   0  0  0  0  0  0  0  0  0  0  0  0
   -1.8301   -0.3519   -0.1548 H   0  0  0  0  0  0  0  0  0  0  0  0
    0.2709   -0.2409    0.0912 C   0  0  1  0  0  0  0  0  0  0  0  0
    1.0594   -0.9781   -0.0620 H   0  0  0  0  0  0  0  0  0  0  0  0
    0.3460    0.7781   -1.0533 C   0  0  0  0  0  0  0  0  0  0  0  0
    1.3499    1.2048   -1.0871 H   0  0  0  0  0  0  0  0  0  0  0  0
    0.1441    0.2771   -2.0017 H   0  0  0  0  0  0  0  0  0  0  0  0
   -0.5869    1.8247   -0.8597 O   0  0  0  0  0  0  0  0  0  0  0  0
   -0.3918    2.5235   -1.4934 H   0  0  0  0  0  0  0  0  0  0  0  0
    0.5028    0.4281    1.4563 C   0  0  0  0  0  0  0  0  0  0  0  0
   -0.2848    1.2816    1.8661 O   0  0  0  0  0  0  0  0  0  0  0  0
    1.5679    0.0390    2.1653 N   0  0  0  0  0  0  0  0  0  0  0  0
    2.2069   -0.5979    1.7082 H   0  0  0  0  0  0  0  0  0  0  0  0
    1.9220    0.5555    3.4859 C   0  0  0  0  0  0  0  0  0  0  0  0
    1.0332    0.5917    4.1194 H   0  0  0  0  0  0  0  0  0  0  0  0
    2.6697   -0.0863    3.9528 H   0  0  0  0  0  0  0  0  0  0  0  0
    2.3228    1.5666    3.3884 H   0  0  0  0  0  0  0  0  0  0  0  0
  5  6  2  0  0  0  0
  5  7  1  0  0  0  0
  2  3  1  0  0  0  0
  2  4  1  0  0  0  0
  2  5  1  0  0  0  0
  1  2  1  0  0  0  0
 16 17  2  0  0  0  0
 16 18  1  0  0  0  0
 14 15  1  0  0  0  0
 11 12  1  0  0  0  0
 11 13  1  0  0  0  0
 11 14  1  0  0  0  0
  9 10  1  0  0  0  0
  9 11  1  0  0  0  0
  9 16  1  0  0  0  0
  7  8  1  0  0  0  0
  7  9  1  0  0  0  0
 20 21  1  0  0  0  0
 20 22  1  0  0  0  0
 20 23  1  0  0  0  0
 18 19  1  0  0  0  0
 18 20  1  0  0  0  0
M  END
$$$$
default_name
  -OEChem-01062215323D

 23 22  0     1  0  0  0  0  0999 V2000
   -2.6721   -3.7279    0.7212 H   0  0  0  0  0  0  0  0  0  0  0  0
   -2.6561   -2.6819    0.4162 C   0  0  0  0  0  0  0  0  0  0  0  0
   -3.2401   -2.0889    1.1172 H   0  0  0  0  0  0  0  0  0  0  0  0
   -3.0671   -2.5859   -0.5858 H   0  0  0  0  0  0  0  0  0  0  0  0
   -1.2261   -2.1939    0.4202 C   0  0  0  0  0  0  0  0  0  0  0  0
   -0.3181   -2.9519    0.7312 O   0  0  0  0  0  0  0  0  0  0  0  0
   -1.0281   -0.9259    0.0662 N   0  0  0  0  0  0  0  0  0  0  0  0
   -1.8301   -0.3519   -0.1548 H   0  0  0  0  0  0  0  0  0  0  0  0
    0.2709   -0.2409    0.0912 C   0  0  1  0  0  0  0  0  0  0  0  0
    1.0594   -0.9781   -0.0620 H   0  0  0  0  0  0  0  0  0  0  0  0
    0.3460    0.7781   -1.0533 C   0  0  0  0  0  0  0  0  0  0  0  0
    1.3499    1.2048   -1.0871 H   0  0  0  0  0  0  0  0  0  0  0  0
    0.1441    0.2771   -2.0017 H   0  0  0  0  0  0  0  0  0  0  0  0
   -0.5869    1.8247   -0.8597 O   0  0  0  0  0  0  0  0  0  0  0  0
   -0.3918    2.5235   -1.4934 H   0  0  0  0  0  0  0  0  0  0  0  0
    0.5028    0.4281    1.4563 C   0  0  0  0  0  0  0  0  0  0  0  0
   -0.4047    1.0647    1.9928 O   0  0  0  0  0  0  0  0  0  0  0  0
    1.7040    0.2785    2.0248 N   0  0  0  0  0  0  0  0  0  0  0  0
    2.4131   -0.1807    1.4687 H   0  0  0  0  0  0  0  0  0  0  0  0
    2.0835    0.8287    3.3246 C   0  0  0  0  0  0  0  0  0  0  0  0
    1.2902    0.6413    4.0514 H   0  0  0  0  0  0  0  0  0  0  0  0
    3.0070    0.3660    3.6738 H   0  0  0  0  0  0  0  0  0  0  0  0
    2.2295    1.9074    3.2372 H   0  0  0  0  0  0  0  0  0  0  0  0
  5  6  2  0  0  0  0
  5  7  1  0  0  0  0
  2  3  1  0  0  0  0
  2  4  1  0  0  0  0
  2  5  1  0  0  0  0
  1  2  1  0  0  0  0
 16 17  2  0  0  0  0
 16 18  1  0  0  0  0
 14 15  1  0  0  0  0
 11 12  1  0  0  0  0
 11 13  1  0  0  0  0
 11 14  1  0  0  0  0
  9 10  1  0  0  0  0
  9 11  1  0  0  0  0
  9 16  1  0  0  0  0
  7  8  1  0  0  0  0
  7  9  1  0  0  0  0
 20 21  1  0  0  0  0
 20 22  1  0  0  0  0
 20 23  1  0  0  0  0
 18 19  1  0  0  0  0
 18 20  1  0  0  0  0
M  END
$$$$
default_name
  -OEChem-01062215323D

 23 22  0     1  0  0  0  0  0999 V2000
   -2.6721   -3.7279    0.7212 H   0  0  0  0  0  0  0  0  0  0  0  0
   -2.6561   -2.6819    0.4162 C   0  0  0  0  0  0  0  0  0  0  0  0
   -3.2401   -2.0889    1.1172 H   0  0  0  0  0  0  0  0  0  0  0  0
   -3.0671   -2.5859   -0.5858 H   0  0  0  0  0  0  0  0  0  0  0  0
   -1.2261   -2.1939    0.4202 C   0  0  0  0  0  0  0  0  0  0  0  0
   -0.3181   -2.9519    0.7312 O   0  0  0  0  0  0  0  0  0  0  0  0
   -1.0281   -0.9259    0.0662 N   0  0  0  0  0  0  0  0  0  0  0  0
   -1.8301   -0.3519   -0.1548 H   0  0  0  0  0  0  0  0  0  0  0  0
    0.2709   -0.2409    0.0912 C   0  0  1  0  0  0  0  0  0  0  0  0
    1.0594   -0.9781   -0.0620 H   0  0  0  0  0  0  0  0  0  0  0  0
    0.3460    0.7781   -1.0533 C   0  0  0  0  0  0  0  0  0  0  0  0
    1.3499    1.2048   -1.0871 H   0  0  0  0  0  0  0  0  0  0  0  0
    0.1441    0.2771   -2.0017 H   0  0  0  0  0  0  0  0  0  0  0  0
   -0.5869    1.8247   -0.8597 O   0  0  0  0  0  0  0  0  0  0  0  0
   -0.3918    2.5235   -1.4934 H   0  0  0  0  0  0  0  0  0  0  0  0
    0.5028    0.4281    1.4563 C   0  0  0  0  0  0  0  0  0  0  0  0
   -0.4565    0.8227    2.1202 O   0  0  0  0  0  0  0  0  0  0  0  0
    1.7646    0.5466    1.8831 N   0  0  0  0  0  0  0  0  0  0  0  0
    2.4895    0.2790    1.2305 H   0  0  0  0  0  0  0  0  0  0  0  0
    2.1586    1.1361    3.1612 C   0  0  0  0  0  0  0  0  0  0  0  0
    1.5195    0.7510    3.9587 H   0  0  0  0  0  0  0  0  0  0  0  0
    3.1975    0.8914    3.3840 H   0  0  0  0  0  0  0  0  0  0  0  0
    2.0441    2.2210    3.1151 H   0  0  0  0  0  0  0  0  0  0  0  0
  5  6  2  0  0  0  0
  5  7  1  0  0  0  0
  2  3  1  0  0  0  0
  2  4  1  0  0  0  0
  2  5  1  0  0  0  0
  1  2  1  0  0  0  0
 16 17  2  0  0  0  0
 16 18  1  0  0  0  0
 14 15  1  0  0  0  0
 11 12  1  0  0  0  0
 11 13  1  0  0  0  0
 11 14  1  0  0  0  0
  9 10  1  0  0  0  0
  9 11  1  0  0  0  0
  9 16  1  0  0  0  0
  7  8  1  0  0  0  0
  7  9  1  0  0  0  0
 20 21  1  0  0  0  0
 20 22  1  0  0  0  0
 20 23  1  0  0  0  0
 18 19  1  0  0  0  0
 18 20  1  0  0  0  0
M  END
$$$$
default_name
  -OEChem-01062215323D

 23 22  0     1  0  0  0  0  0999 V2000
   -2.6721   -3.7279    0.7212 H   0  0  0  0  0  0  0  0  0  0  0  0
   -2.6561   -2.6819    0.4162 C   0  0  0  0  0  0  0  0  0  0  0  0
   -3.2401   -2.0889    1.1172 H   0  0  0  0  0  0  0  0  0  0  0  0
   -3.0671   -2.5859   -0.5858 H   0  0  0  0  0  0  0  0  0  0  0  0
   -1.2261   -2.1939    0.4202 C   0  0  0  0  0  0  0  0  0  0  0  0
   -0.3181   -2.9519    0.7312 O   0  0  0  0  0  0  0  0  0  0  0  0
   -1.0281   -0.9259    0.0662 N   0  0  0  0  0  0  0  0  0  0  0  0
   -1.8301   -0.3519   -0.1548 H   0  0  0  0  0  0  0  0  0  0  0  0
    0.2709   -0.2409    0.0912 C   0  0  1  0  0  0  0  0  0  0  0  0
    1.0594   -0.9781   -0.0620 H   0  0  0  0  0  0  0  0  0  0  0  0
    0.3460    0.7781   -1.0533 C   0  0  0  0  0  0  0  0  0  0  0  0
    1.3499    1.2048   -1.0871 H   0  0  0  0  0  0  0  0  0  0  0  0
    0.1441    0.2771   -2.0017 H   0  0  0  0  0  0  0  0  0  0  0  0
   -0.5869    1.8247   -0.8597 O   0  0  0  0  0  0  0  0  0  0  0  0
   -0.3918    2.5235   -1.4934 H   0  0  0  0  0  0  0  0  0  0  0  0
    0.5028    0.4281    1.4563 C   0  0  0  0  0  0  0  0  0  0  0  0
   -0.4366    0.5721    2.2396 O   0  0  0  0  0  0  0  0  0  0  0  0
    1.7457    0.8250    1.7499 N   0  0  0  0  0  0  0  0  0  0  0  0
    2.4308    0.7499    1.0097 H   0  0  0  0  0  0  0  0  0  0  0  0
    2.1421    1.4565    3.0070 C   0  0  0  0  0  0  0  0  0  0  0  0
    1.7053    0.9132    3.8476 H   0  0  0  0  0  0  0  0  0  0  0  0
    3.2282    1.4538    3.1032 H   0  0  0  0  0  0  0  0  0  0  0  0
    1.7792    2.4862    3.0301 H   0  0  0  0  0  0  0  0  0  0  0  0
  5  6  2  0  0  0  0
  5  7  1  0  0  0  0
  2  3  1  0  0  0  0
  2  4  1  0  0  0  0
  2  5  1  0  0  0  0
  1  2  1  0  0  0  0
 16 17  2  0  0  0  0
 16 18  1  0  0  0  0
 14 15  1  0  0  0  0
 11 12  1  0  0  0  0
 11 13  1  0  0  0  0
 11 14  1  0  0  0  0
  9 10  1  0  0  0  0
  9 11  1  0  0  0  0
  9 16  1  0  0  0  0
  7  8  1  0  0  0  0
  7  9  1  0  0  0  0
 20 21  1  0  0  0  0
 20 22  1  0  0  0  0
 20 23  1  0  0  0  0
 18 19  1  0  0  0  0
 18 20  1  0  0  0  0
M  END
$$$$
default_name
  -OEChem-01062215323D

 23 22  0     1  0  0  0  0  0999 V2000
   -2.6721   -3.7279    0.7212 H   0  0  0  0  0  0  0  0  0  0  0  0
   -2.6561   -2.6819    0.4162 C   0  0  0  0  0  0  0  0  0  0  0  0
   -3.2401   -2.0889    1.1172 H   0  0  0  0  0  0  0  0  0  0  0  0
   -3.0671   -2.5859   -0.5858 H   0  0  0  0  0  0  0  0  0  0  0  0
   -1.2261   -2.1939    0.4202 C   0  0  0  0  0  0  0  0  0  0  0  0
   -0.3181   -2.9519    0.7312 O   0  0  0  0  0  0  0  0  0  0  0  0
   -1.0281   -0.9259    0.0662 N   0  0  0  0  0  0  0  0  0  0  0  0
   -1.8301   -0.3519   -0.1548 H   0  0  0  0  0  0  0  0  0  0  0  0
    0.2709   -0.2409    0.0912 C   0  0  1  0  0  0  0  0  0  0  0  0
    1.0278   -0.9088   -0.3205 H   0  0  0  0  0  0  0  0  0  0  0  0
    0.2166    1.0140   -0.7898 C   0  0  0  0  0  0  0  0  0  0  0  0
    1.2130    1.4555   -0.8453 H   0  0  0  0  0  0  0  0  0  0  0  0
   -0.1036    0.7394   -1.7964 H   0  0  0  0  0  0  0  0  0  0  0  0
   -0.6759    1.9712   -0.2508 O   0  0  0  0  0  0  0  0  0  0  0  0
   -0.5523    2.7999   -0.7262 H   0  0  0  0  0  0  0  0  0  0  0  0
    0.6730    0.1024    1.5352 C   0  0  0  0  0  0  0  0  0  0  0  0
   -0.0633   -0.2115    2.4712 O   0  0  0  0  0  0  0  0  0  0  0  0
    1.8381    0.7318    1.7222 N   0  0  0  0  0  0  0  0  0  0  0  0
    2.3289    1.0308    0.8900 H   0  0  0  0  0  0  0  0  0  0  0  0
    2.3786    1.1114    3.0260 C   0  0  0  0  0  0  0  0  0  0  0  0
    2.2772    0.2786    3.7251 H   0  0  0  0  0  0  0  0  0  0  0  0
    3.4323    1.3764    2.9337 H   0  0  0  0  0  0  0  0  0  0  0  0
    1.8234    1.9661    3.4180 H   0  0  0  0  0  0  0  0  0  0  0  0
  5  6  2  0  0  0  0
  5  7  1  0  0  0  0
  2  3  1  0  0  0  0
  2  4  1  0  0  0  0
  2  5  1  0  0  0  0
  1  2  1  0  0  0  0
 16 17  2  0  0  0  0
 16 18  1  0  0  0  0
 14 15  1  0  0  0  0
 11 12  1  0  0  0  0
 11 13  1  0  0  0  0
 11 14  1  0  0  0  0
  9 10  1  0  0  0  0
  9 11  1  0  0  0  0
  9 16  1  0  0  0  0
  7  8  1  0  0  0  0
  7  9  1  0  0  0  0
 20 21  1  0  0  0  0
 20 22  1  0  0  0  0
 20 23  1  0  0  0  0
 18 19  1  0  0  0  0
 18 20  1  0  0  0  0
M  END
$$$$
default_name
  -OEChem-01062215323D

 23 22  0     1  0  0  0  0  0999 V2000
   -2.6721   -3.7279    0.7212 H   0  0  0  0  0  0  0  0  0  0  0  0
   -2.6561   -2.6819    0.4162 C   0  0  0  0  0  0  0  0  0  0  0  0
   -3.2401   -2.0889    1.1172 H   0  0  0  0  0  0  0  0  0  0  0  0
   -3.0671   -2.5859   -0.5858 H   0  0  0  0  0  0  0  0  0  0  0  0
   -1.2261   -2.1939    0.4202 C   0  0  0  0  0  0  0  0  0  0  0  0
   -0.3181   -2.9519    0.7312 O   0  0  0  0  0  0  0  0  0  0  0  0
   -1.0281   -0.9259    0.0662 N   0  0  0  0  0  0  0  0  0  0  0  0
   -1.8301   -0.3519   -0.1548 H   0  0  0  0  0  0  0  0  0  0  0  0
    0.2709   -0.2409    0.0912 C   0  0  1  0  0  0  0  0  0  0  0  0
    1.0278   -0.9088   -0.3205 H   0  0  0  0  0  0  0  0  0  0  0  0
    0.2166    1.0140   -0.7898 C   0  0  0  0  0  0  0  0  0  0  0  0
    1.2130    1.4555   -0.8453 H   0  0  0  0  0  0  0  0  0  0  0  0
   -0.1036    0.7394   -1.7964 H   0  0  0  0  0  0  0  0  0  0  0  0
   -0.6759    1.9712   -0.2508 O   0  0  0  0  0  0  0  0  0  0  0  0
   -0.5523    2.7999   -0.7262 H   0  0  0  0  0  0  0  0  0  0  0  0
    0.6730    0.1024    1.5352 C   0  0  0  0  0  0  0  0  0  0  0  0
    0.0977   -0.4384    2.4803 O   0  0  0  0  0  0  0  0  0  0  0  0
    1.6617    0.9856    1.7110 N   0  0  0  0  0  0  0  0  0  0  0  0
    2.0098    1.4455    0.8802 H   0  0  0  0  0  0  0  0  0  0  0  0
    2.1798    1.4064    3.0112 C   0  0  0  0  0  0  0  0  0  0  0  0
    2.3286    0.5334    3.6502 H   0  0  0  0  0  0  0  0  0  0  0  0
    3.1301    1.9266    2.8871 H   0  0  0  0  0  0  0  0  0  0  0  0
    1.4622    2.0737    3.4930 H   0  0  0  0  0  0  0  0  0  0  0  0
  5  6  2  0  0  0  0
  5  7  1  0  0  0  0
  2  3  1  0  0  0  0
  2  4  1  0  0  0  0
  2  5  1  0  0  0  0
  1  2  1  0  0  0  0
 16 17  2  0  0  0  0
 16 18  1  0  0  0  0
 14 15  1  0  0  0  0
 11 12  1  0  0  0  0
 11 13  1  0  0  0  0
 11 14  1  0  0  0  0
  9 10  1  0  0  0  0
  9 11  1  0  0  0  0
  9 16  1  0  0  0  0
  7  8  1  0  0  0  0
  7  9  1  0  0  0  0
 20 21  1  0  0  0  0
 20 22  1  0  0  0  0
 20 23  1  0  0  0  0
 18 19  1  0  0  0  0
 18 20  1  0  0  0  0
M  END
$$$$
default_name
  -OEChem-01062215323D

 23 22  0     1  0  0  0  0  0999 V2000
   -2.6721   -3.7279    0.7212 H   0  0  0  0  0  0  0  0  0  0  0  0
   -2.6561   -2.6819    0.4162 C   0  0  0  0  0  0  0  0  0  0  0  0
   -3.2401   -2.0889    1.1172 H   0  0  0  0  0  0  0  0  0  0  0  0
   -3.0671   -2.5859   -0.5858 H   0  0  0  0  0  0  0  0  0  0  0  0
   -1.2261   -2.1939    0.4202 C   0  0  0  0  0  0  0  0  0  0  0  0
   -0.3181   -2.9519    0.7312 O   0  0  0  0  0  0  0  0  0  0  0  0
   -1.0281   -0.9259    0.0662 N   0  0  0  0  0  0  0  0  0  0  0  0
   -1.8301   -0.3519   -0.1548 H   0  0  0  0  0  0  0  0  0  0  0  0
    0.2709   -0.2409    0.0912 C   0  0  1  0  0  0  0  0  0  0  0  0
    1.0278   -0.9088   -0.3205 H   0  0  0  0  0  0  0  0  0  0  0  0
    0.2166    1.0140   -0.7898 C   0  0  0  0  0  0  0  0  0  0  0  0
    1.2130    1.4555   -0.8453 H   0  0  0  0  0  0  0  0  0  0  0  0
   -0.1036    0.7394   -1.7964 H   0  0  0  0  0  0  0  0  0  0  0  0
   -0.6759    1.9712   -0.2508 O   0  0  0  0  0  0  0  0  0  0  0  0
   -0.5523    2.7999   -0.7262 H   0  0  0  0  0  0  0  0  0  0  0  0
    0.6730    0.1024    1.5352 C   0  0  0  0  0  0  0  0  0  0  0  0
    0.3088   -0.6191    2.4645 O   0  0  0  0  0  0  0  0  0  0  0  0
    1.4291    1.1886    1.7275 N   0  0  0  0  0  0  0  0  0  0  0  0
    1.6003    1.7693    0.9173 H   0  0  0  0  0  0  0  0  0  0  0  0
    1.9153    1.6441    3.0284 C   0  0  0  0  0  0  0  0  0  0  0  0
    2.3120    0.7971    3.5921 H   0  0  0  0  0  0  0  0  0  0  0  0
    2.7018    2.3877    2.8967 H   0  0  0  0  0  0  0  0  0  0  0  0
    1.0914    2.0847    3.5936 H   0  0  0  0  0  0  0  0  0  0  0  0
  5  6  2  0  0  0  0
  5  7  1  0  0  0  0
  2  3  1  0  0  0  0
  2  4  1  0  0  0  0
  2  5  1  0  0  0  0
  1  2  1  0  0  0  0
 16 17  2  0  0  0  0
 16 18  1  0  0  0  0
 14 15  1  0  0  0  0
 11 12  1  0  0  0  0
 11 13  1  0  0  0  0
 11 14  1  0  0  0  0
  9 10  1  0  0  0  0
  9 11  1  0  0  0  0
  9 16  1  0  0  0  0
  7  8  1  0  0  0  0
  7  9  1  0  0  0  0
 20 21  1  0  0  0  0
 20 22  1  0  0  0  0
 20 23  1  0  0  0  0
 18 19  1  0  0  0  0
 18 20  1  0  0  0  0
M  END
$$$$
default_name
  -OEChem-01062215323D

 23 22  0     1  0  0  0  0  0999 V2000
   -2.6721   -3.7279    0.7212 H   0  0  0  0  0  0  0  0  0  0  0  0
   -2.6561   -2.6819    0.4162 C   0  0  0  0  0  0  0  0  0  0  0  0
   -3.2401   -2.0889    1.1172 H   0  0  0  0  0  0  0  0  0  0  0  0
   -3.0671   -2.5859   -0.5858 H   0  0  0  0  0  0  0  0  0  0  0  0
   -1.2261   -2.1939    0.4202 C   0  0  0  0  0  0  0  0  0  0  0  0
   -0.3181   -2.9519    0.7312 O   0  0  0  0  0  0  0  0  0  0  0  0
   -1.0281   -0.9259    0.0662 N   0  0  0  0  0  0  0  0  0  0  0  0
   -1.8301   -0.3519   -0.1548 H   0  0  0  0  0  0  0  0  0  0  0  0
    0.2709   -0.2409    0.0912 C   0  0  1  0  0  0  0  0  0  0  0  0
    1.0278   -0.9088   -0.3205 H   0  0  0  0  0  0  0  0  0  0  0  0
    0.2166    1.0140   -0.7898 C   0  0  0  0  0  0  0  0  0  0  0  0
    1.2130    1.4555   -0.8453 H   0  0  0  0  0  0  0  0  0  0  0  0
   -0.1036    0.7394   -1.7964 H   0  0  0  0  0  0  0  0  0  0  0  0
   -0.6759    1.9712   -0.2508 O   0  0  0  0  0  0  0  0  0  0  0  0
   -0.5523    2.7999   -0.7262 H   0  0  0  0  0  0  0  0  0  0  0  0
    0.6730    0.1024    1.5352 C   0  0  0  0  0  0  0  0  0  0  0  0
    0.5558   -0.7412    2.4248 O   0  0  0  0  0  0  0  0  0  0  0  0
    1.1559    1.3271    1.7706 N   0  0  0  0  0  0  0  0  0  0  0  0
    1.1282    1.9799    0.9987 H   0  0  0  0  0  0  0  0  0  0  0  0
    1.6030    1.8082    3.0764 C   0  0  0  0  0  0  0  0  0  0  0  0
    2.2286    1.0517    3.5548 H   0  0  0  0  0  0  0  0  0  0  0  0
    2.1766    2.7284    2.9620 H   0  0  0  0  0  0  0  0  0  0  0  0
    0.7364    1.9985    3.7130 H   0  0  0  0  0  0  0  0  0  0  0  0
  5  6  2  0  0  0  0
  5  7  1  0  0  0  0
  2  3  1  0  0  0  0
  2  4  1  0  0  0  0
  2  5  1  0  0  0  0
  1  2  1  0  0  0  0
 16 17  2  0  0  0  0
 16 18  1  0  0  0  0
 14 15  1  0  0  0  0
 11 12  1  0  0  0  0
 11 13  1  0  0  0  0
 11 14  1  0  0  0  0
  9 10  1  0  0  0  0
  9 11  1  0  0  0  0
  9 16  1  0  0  0  0
  7  8  1  0  0  0  0
  7  9  1  0  0  0  0
 20 21  1  0  0  0  0
 20 22  1  0  0  0  0
 20 23  1  0  0  0  0
 18 19  1  0  0  0  0
 18 20  1  0  0  0  0
M  END
$$$$
default_name
  -OEChem-01062215323D

 23 22  0     1  0  0  0  0  0999 V2000
   -2.6721   -3.7279    0.7212 H   0  0  0  0  0  0  0  0  0  0  0  0
   -2.6561   -2.6819    0.4162 C   0  0  0  0  0  0  0  0  0  0  0  0
   -3.2401   -2.0889    1.1172 H   0  0  0  0  0  0  0  0  0  0  0  0
   -3.0671   -2.5859   -0.5858 H   0  0  0  0  0  0  0  0  0  0  0  0
   -1.2261   -2.1939    0.4202 C   0  0  0  0  0  0  0  0  0  0  0  0
   -0.3181   -2.9519    0.7312 O   0  0  0  0  0  0  0  0  0  0  0  0
   -1.0281   -0.9259    0.0662 N   0  0  0  0  0  0  0  0  0  0  0  0
   -1.8301   -0.3519   -0.1548 H   0  0  0  0  0  0  0  0  0  0  0  0
    0.2709   -0.2409    0.0912 C   0  0  1  0  0  0  0  0  0  0  0  0
    1.0278   -0.9088   -0.3205 H   0  0  0  0  0  0  0  0  0  0  0  0
    0.2166    1.0140   -0.7898 C   0  0  0  0  0  0  0  0  0  0  0  0
    1.2130    1.4555   -0.8453 H   0  0  0  0  0  0  0  0  0  0  0  0
   -0.1036    0.7394   -1.7964 H   0  0  0  0  0  0  0  0  0  0  0  0
   -0.6759    1.9712   -0.2508 O   0  0  0  0  0  0  0  0  0  0  0  0
   -0.5523    2.7999   -0.7262 H   0  0  0  0  0  0  0  0  0  0  0  0
    0.6730    0.1024    1.5352 C   0  0  0  0  0  0  0  0  0  0  0  0
    0.8217   -0.7965    2.3639 O   0  0  0  0  0  0  0  0  0  0  0  0
    0.8610    1.3915    1.8375 N   0  0  0  0  0  0  0  0  0  0  0  0
    0.6257    2.0632    1.1188 H   0  0  0  0  0  0  0  0  0  0  0  0
    1.2642    1.8876    3.1518 C   0  0  0  0  0  0  0  0  0  0  0  0
    2.0840    1.2799    3.5409 H   0  0  0  0  0  0  0  0  0  0  0  0
    1.5902    2.9255    3.0784 H   0  0  0  0  0  0  0  0  0  0  0  0
    0.4214    1.8208    3.8430 H   0  0  0  0  0  0  0  0  0  0  0  0
  5  6  2  0  0  0  0
  5  7  1  0  0  0  0
  2  3  1  0  0  0  0
  2  4  1  0  0  0  0
  2  5  1  0  0  0  0
  1  2  1  0  0  0  0
 16 17  2  0  0  0  0
 16 18  1  0  0  0  0
 14 15  1  0  0  0  0
 11 12  1  0  0  0  0
 11 13  1  0  0  0  0
 11 14  1  0  0  0  0
  9 10  1  0  0  0  0
  9 11  1  0  0  0  0
  9 16  1  0  0  0  0
  7  8  1  0  0  0  0
  7  9  1  0  0  0  0
 20 21  1  0  0  0  0
 20 22  1  0  0  0  0
 20 23  1  0  0  0  0
 18 19  1  0  0  0  0
 18 20  1  0  0  0  0
M  END
$$$$
default_name
  -OEChem-01062215323D

 23 22  0     1  0  0  0  0  0999 V2000
   -2.6721   -3.7279    0.7212 H   0  0  0  0  0  0  0  0  0  0  0  0
   -2.6561   -2.6819    0.4162 C   0  0  0  0  0  0  0  0  0  0  0  0
   -3.2401   -2.0889    1.1172 H   0  0  0  0  0  0  0  0  0  0  0  0
   -3.0671   -2.5859   -0.5858 H   0  0  0  0  0  0  0  0  0  0  0  0
   -1.2261   -2.1939    0.4202 C   0  0  0  0  0  0  0  0  0  0  0  0
   -0.3181   -2.9519    0.7312 O   0  0  0  0  0  0  0  0  0  0  0  0
   -1.0281   -0.9259    0.0662 N   0  0  0  0  0  0  0  0  0  0  0  0
   -1.8301   -0.3519   -0.1548 H   0  0  0  0  0  0  0  0  0  0  0  0
    0.2709   -0.2409    0.0912 C   0  0  1  0  0  0  0  0  0  0  0  0
    1.0278   -0.9088   -0.3205 H   0  0  0  0  0  0  0  0  0  0  0  0
    0.2166    1.0140   -0.7898 C   0  0  0  0  0  0  0  0  0  0  0  0
    1.2130    1.4555   -0.8453 H   0  0  0  0  0  0  0  0  0  0  0  0
   -0.1036    0.7394   -1.7964 H   0  0  0  0  0  0  0  0  0  0  0  0
   -0.6759    1.9712   -0.2508 O   0  0  0  0  0  0  0  0  0  0  0  0
   -0.5523    2.7999   -0.7262 H   0  0  0  0  0  0  0  0  0  0  0  0
    0.6730    0.1024    1.5352 C   0  0  0  0  0  0  0  0  0  0  0  0
    1.0884   -0.7811    2.2859 O   0  0  0  0  0  0  0  0  0  0  0  0
    0.5642    1.3776    1.9234 N   0  0  0  0  0  0  0  0  0  0  0  0
    0.1270    2.0133    1.2695 H   0  0  0  0  0  0  0  0  0  0  0  0
    0.9220    1.8768    3.2497 C   0  0  0  0  0  0  0  0  0  0  0  0
    1.8880    1.4661    3.5512 H   0  0  0  0  0  0  0  0  0  0  0  0
    0.9826    2.9654    3.2381 H   0  0  0  0  0  0  0  0  0  0  0  0
    0.1678    1.5638    3.9747 H   0  0  0  0  0  0  0  0  0  0  0  0
  5  6  2  0  0  0  0
  5  7  1  0  0  0  0
  2  3  1  0  0  0  0
  2  4  1  0  0  0  0
  2  5  1  0  0  0  0
  1  2  1  0  0  0  0
 16 17  2  0  0  0  0
 16 18  1  0  0  0  0
 14 15  1  0  0  0  0
 11 12  1  0  0  0  0
 11 13  1  0  0  0  0
 11 14  1  0  0  0  0
  9 10  1  0  0  0  0
  9 11  1  0  0  0  0
  9 16  1  0  0  0  0
  7  8  1  0  0  0  0
  7  9  1  0  0  0  0
 20 21  1  0  0  0  0
 20 22  1  0  0  0  0
 20 23  1  0  0  0  0
 18 19  1  0  0  0  0
 18 20  1  0  0  0  0
M  END
$$$$
default_name
  -OEChem-01062215323D

 23 22  0     1  0  0  0  0  0999 V2000
   -2.6721   -3.7279    0.7212 H   0  0  0  0  0  0  0  0  0  0  0  0
   -2.6561   -2.6819    0.4162 C   0  0  0  0  0  0  0  0  0  0  0  0
   -3.2401   -2.0889    1.1172 H   0  0  0  0  0  0  0  0  0  0  0  0
   -3.0671   -2.5859   -0.5858 H   0  0  0  0  0  0  0  0  0  0  0  0
   -1.2261   -2.1939    0.4202 C   0  0  0  0  0  0  0  0  0  0  0  0
   -0.3181   -2.9519    0.7312 O   0  0  0  0  0  0  0  0  0  0  0  0
   -1.0281   -0.9259    0.0662 N   0  0  0  0  0  0  0  0  0  0  0  0
   -1.8301   -0.3519   -0.1548 H   0  0  0  0  0  0  0  0  0  0  0  0
    0.2709   -0.2409    0.0912 C   0  0  1  0  0  0  0  0  0  0  0  0
    1.0278   -0.9088   -0.3205 H   0  0  0  0  0  0  0  0  0  0  0  0
    0.2166    1.0140   -0.7898 C   0  0  0  0  0  0  0  0  0  0  0  0
    1.2130    1.4555   -0.8453 H   0  0  0  0  0  0  0  0  0  0  0  0
   -0.1036    0.7394   -1.7964 H   0  0  0  0  0  0  0  0  0  0  0  0
   -0.6759    1.9712   -0.2508 O   0  0  0  0  0  0  0  0  0  0  0  0
   -0.5523    2.7999   -0.7262 H   0  0  0  0  0  0  0  0  0  0  0  0
    0.6730    0.1024    1.5352 C   0  0  0  0  0  0  0  0  0  0  0  0
    1.3379   -0.6961    2.1963 O   0  0  0  0  0  0  0  0  0  0  0  0
    0.2860    1.2861    2.0226 N   0  0  0  0  0  0  0  0  0  0  0  0
   -0.3339    1.8337    1.4406 H   0  0  0  0  0  0  0  0  0  0  0  0
    0.5998    1.7766    3.3632 C   0  0  0  0  0  0  0  0  0  0  0  0
    1.6541    1.5976    3.5850 H   0  0  0  0  0  0  0  0  0  0  0  0
    0.3953    2.8455    3.4302 H   0  0  0  0  0  0  0  0  0  0  0  0
   -0.0071    1.2451    4.0991 H   0  0  0  0  0  0  0  0  0  0  0  0
  5  6  2  0  0  0  0
  5  7  1  0  0  0  0
  2  3  1  0  0  0  0
  2  4  1  0  0  0  0
  2  5  1  0  0  0  0
  1  2  1  0  0  0  0
 16 17  2  0  0  0  0
 16 18  1  0  0  0  0
 14 15  1  0  0  0  0
 11 12  1  0  0  0  0
 11 13  1  0  0  0  0
 11 14  1  0  0  0  0
  9 10  1  0  0  0  0
  9 11  1  0  0  0  0
  9 16  1  0  0  0  0
  7  8  1  0  0  0  0
  7  9  1  0  0  0  0
 20 21  1  0  0  0  0
 20 22  1  0  0  0  0
 20 23  1  0  0  0  0
 18 19  1  0  0  0  0
 18 20  1  0  0  0  0
M  END
$$$$
default_name
  -OEChem-01062215323D

 23 22  0     1  0  0  0  0  0999 V2000
   -2.6721   -3.7279    0.7212 H   0  0  0  0  0  0  0  0  0  0  0  0
   -2.6561   -2.6819    0.4162 C   0  0  0  0  0  0  0  0  0  0  0  0
   -3.2401   -2.0889    1.1172 H   0  0  0  0  0  0  0  0  0  0  0  0
   -3.0671   -2.5859   -0.5858 H   0  0  0  0  0  0  0  0  0  0  0  0
   -1.2261   -2.1939    0.4202 C   0  0  0  0  0  0  0  0  0  0  0  0
   -0.3181   -2.9519    0.7312 O   0  0  0  0  0  0  0  0  0  0  0  0
   -1.0281   -0.9259    0.0662 N   0  0  0  0  0  0  0  0  0  0  0  0
   -1.8301   -0.3519   -0.1548 H   0  0  0  0  0  0  0  0  0  0  0  0
    0.2709   -0.2409    0.0912 C   0  0  1  0  0  0  0  0  0  0  0  0
    1.0278   -0.9088   -0.3205 H   0  0  0  0  0  0  0  0  0  0  0  0
    0.2166    1.0140   -0.7898 C   0  0  0  0  0  0  0  0  0  0  0  0
    1.2130    1.4555   -0.8453 H   0  0  0  0  0  0  0  0  0  0  0  0
   -0.1036    0.7394   -1.7964 H   0  0  0  0  0  0  0  0  0  0  0  0
   -0.6759    1.9712   -0.2508 O   0  0  0  0  0  0  0  0  0  0  0  0
   -0.5523    2.7999   -0.7262 H   0  0  0  0  0  0  0  0  0  0  0  0
    0.6730    0.1024    1.5352 C   0  0  0  0  0  0  0  0  0  0  0  0
    1.5530   -0.5474    2.1010 O   0  0  0  0  0  0  0  0  0  0  0  0
    0.0452    1.1235    2.1283 N   0  0  0  0  0  0  0  0  0  0  0  0
   -0.7255    1.5367    1.6202 H   0  0  0  0  0  0  0  0  0  0  0  0
    0.3195    1.5938    3.4847 C   0  0  0  0  0  0  0  0  0  0  0  0
    1.3981    1.6655    3.6402 H   0  0  0  0  0  0  0  0  0  0  0  0
   -0.1318    2.5739    3.6415 H   0  0  0  0  0  0  0  0  0  0  0  0
   -0.0914    0.8862    4.2079 H   0  0  0  0  0  0  0  0  0  0  0  0
  5  6  2  0  0  0  0
  5  7  1  0  0  0  0
  2  3  1  0  0  0  0
  2  4  1  0  0  0  0
  2  5  1  0  0  0  0
  1  2  1  0  0  0  0
 16 17  2  0  0  0  0
 16 18  1  0  0  0  0
 14 15  1  0  0  0  0
 11 12  1  0  0  0  0
 11 13  1  0  0  0  0
 11 14  1  0  0  0  0
  9 10  1  0  0  0  0
  9 11  1  0  0  0  0
  9 16  1  0  0  0  0
  7  8  1  0  0  0  0
  7  9  1  0  0  0  0
 20 21  1  0  0  0  0
 20 22  1  0  0  0  0
 20 23  1  0  0  0  0
 18 19  1  0  0  0  0
 18 20  1  0  0  0  0
M  END
$$$$
default_name
  -OEChem-01062215323D

 23 22  0     1  0  0  0  0  0999 V2000
   -2.6721   -3.7279    0.7212 H   0  0  0  0  0  0  0  0  0  0  0  0
   -2.6561   -2.6819    0.4162 C   0  0  0  0  0  0  0  0  0  0  0  0
   -3.2401   -2.0889    1.1172 H   0  0  0  0  0  0  0  0  0  0  0  0
   -3.0671   -2.5859   -0.5858 H   0  0  0  0  0  0  0  0  0  0  0  0
   -1.2261   -2.1939    0.4202 C   0  0  0  0  0  0  0  0  0  0  0  0
   -0.3181   -2.9519    0.7312 O   0  0  0  0  0  0  0  0  0  0  0  0
   -1.0281   -0.9259    0.0662 N   0  0  0  0  0  0  0  0  0  0  0  0
   -1.8301   -0.3519   -0.1548 H   0  0  0  0  0  0  0  0  0  0  0  0
    0.2709   -0.2409    0.0912 C   0  0  1  0  0  0  0  0  0  0  0  0
    1.0278   -0.9088   -0.3205 H   0  0  0  0  0  0  0  0  0  0  0  0
    0.2166    1.0140   -0.7898 C   0  0  0  0  0  0  0  0  0  0  0  0
    1.2130    1.4555   -0.8453 H   0  0  0  0  0  0  0  0  0  0  0  0
   -0.1036    0.7394   -1.7964 H   0  0  0  0  0  0  0  0  0  0  0  0
   -0.6759    1.9712   -0.2508 O   0  0  0  0  0  0  0  0  0  0  0  0
   -0.5523    2.7999   -0.7262 H   0  0  0  0  0  0  0  0  0  0  0  0
    0.6730    0.1024    1.5352 C   0  0  0  0  0  0  0  0  0  0  0  0
    1.7191   -0.3450    2.0066 O   0  0  0  0  0  0  0  0  0  0  0  0
   -0.1418    0.9007    2.2334 N   0  0  0  0  0  0  0  0  0  0  0  0
   -1.0212    1.1424    1.7963 H   0  0  0  0  0  0  0  0  0  0  0  0
    0.1002    1.3409    3.6059 C   0  0  0  0  0  0  0  0  0  0  0  0
    1.1375    1.6652    3.7128 H   0  0  0  0  0  0  0  0  0  0  0  0
   -0.5627    2.1692    3.8577 H   0  0  0  0  0  0  0  0  0  0  0  0
   -0.0793    0.5118    4.2936 H   0  0  0  0  0  0  0  0  0  0  0  0
  5  6  2  0  0  0  0
  5  7  1  0  0  0  0
  2  3  1  0  0  0  0
  2  4  1  0  0  0  0
  2  5  1  0  0  0  0
  1  2  1  0  0  0  0
 16 17  2  0  0  0  0
 16 18  1  0  0  0  0
 14 15  1  0  0  0  0
 11 12  1  0  0  0  0
 11 13  1  0  0  0  0
 11 14  1  0  0  0  0
  9 10  1  0  0  0  0
  9 11  1  0  0  0  0
  9 16  1  0  0  0  0
  7  8  1  0  0  0  0
  7  9  1  0  0  0  0
 20 21  1  0  0  0  0
 20 22  1  0  0  0  0
 20 23  1  0  0  0  0
 18 19  1  0  0  0  0
 18 20  1  0  0  0  0
M  END
$$$$
default_name
  -OEChem-01062215323D

 23 22  0     1  0  0  0  0  0999 V2000
   -2.6721   -3.7279    0.7212 H   0  0  0  0  0  0  0  0  0  0  0  0
   -2.6561   -2.6819    0.4162 C   0  0  0  0  0  0  0  0  0  0  0  0
   -3.2401   -2.0889    1.1172 H   0  0  0  0  0  0  0  0  0  0  0  0
   -3.0671   -2.5859   -0.5858 H   0  0  0  0  0  0  0  0  0  0  0  0
   -1.2261   -2.1939    0.4202 C   0  0  0  0  0  0  0  0  0  0  0  0
   -0.3181   -2.9519    0.7312 O   0  0  0  0  0  0  0  0  0  0  0  0
   -1.0281   -0.9259    0.0662 N   0  0  0  0  0  0  0  0  0  0  0  0
   -1.8301   -0.3519   -0.1548 H   0  0  0  0  0  0  0  0  0  0  0  0
    0.2709   -0.2409    0.0912 C   0  0  1  0  0  0  0  0  0  0  0  0
    1.0278   -0.9088   -0.3205 H   0  0  0  0  0  0  0  0  0  0  0  0
    0.2166    1.0140   -0.7898 C   0  0  0  0  0  0  0  0  0  0  0  0
    1.2130    1.4555   -0.8453 H   0  0  0  0  0  0  0  0  0  0  0  0
   -0.1036    0.7394   -1.7964 H   0  0  0  0  0  0  0  0  0  0  0  0
   -0.6759    1.9712   -0.2508 O   0  0  0  0  0  0  0  0  0  0  0  0
   -0.5523    2.7999   -0.7262 H   0  0  0  0  0  0  0  0  0  0  0  0
    0.6730    0.1024    1.5352 C   0  0  0  0  0  0  0  0  0  0  0  0
    1.8249   -0.1027    1.9196 O   0  0  0  0  0  0  0  0  0  0  0  0
   -0.2622    0.6329    2.3305 N   0  0  0  0  0  0  0  0  0  0  0  0
   -1.2009    0.6778    1.9568 H   0  0  0  0  0  0  0  0  0  0  0  0
   -0.0432    1.0351    3.7186 C   0  0  0  0  0  0  0  0  0  0  0  0
    0.8901    1.5966    3.7980 H   0  0  0  0  0  0  0  0  0  0  0  0
   -0.8681    1.6589    4.0640 H   0  0  0  0  0  0  0  0  0  0  0  0
    0.0284    0.1472    4.3502 H   0  0  0  0  0  0  0  0  0  0  0  0
  5  6  2  0  0  0  0
  5  7  1  0  0  0  0
  2  3  1  0  0  0  0
  2  4  1  0  0  0  0
  2  5  1  0  0  0  0
  1  2  1  0  0  0  0
 16 17  2  0  0  0  0
 16 18  1  0  0  0  0
 14 15  1  0  0  0  0
 11 12  1  0  0  0  0
 11 13  1  0  0  0  0
 11 14  1  0  0  0  0
  9 10  1  0  0  0  0
  9 11  1  0  0  0  0
  9 16  1  0  0  0  0
  7  8  1  0  0  0  0
  7  9  1  0  0  0  0
 20 21  1  0  0  0  0
 20 22  1  0  0  0  0
 20 23  1  0  0  0  0
 18 19  1  0  0  0  0
 18 20  1  0  0  0  0
M  END
$$$$
default_name
  -OEChem-01062215323D

 23 22  0     1  0  0  0  0  0999 V2000
   -2.6721   -3.7279    0.7212 H   0  0  0  0  0  0  0  0  0  0  0  0
   -2.6561   -2.6819    0.4162 C   0  0  0  0  0  0  0  0  0  0  0  0
   -3.2401   -2.0889    1.1172 H   0  0  0  0  0  0  0  0  0  0  0  0
   -3.0671   -2.5859   -0.5858 H   0  0  0  0  0  0  0  0  0  0  0  0
   -1.2261   -2.1939    0.4202 C   0  0  0  0  0  0  0  0  0  0  0  0
   -0.3181   -2.9519    0.7312 O   0  0  0  0  0  0  0  0  0  0  0  0
   -1.0281   -0.9259    0.0662 N   0  0  0  0  0  0  0  0  0  0  0  0
   -1.8301   -0.3519   -0.1548 H   0  0  0  0  0  0  0  0  0  0  0  0
    0.2709   -0.2409    0.0912 C   0  0  1  0  0  0  0  0  0  0  0  0
    1.0278   -0.9088   -0.3205 H   0  0  0  0  0  0  0  0  0  0  0  0
    0.2166    1.0140   -0.7898 C   0  0  0  0  0  0  0  0  0  0  0  0
    1.2130    1.4555   -0.8453 H   0  0  0  0  0  0  0  0  0  0  0  0
   -0.1036    0.7394   -1.7964 H   0  0  0  0  0  0  0  0  0  0  0  0
   -0.6759    1.9712   -0.2508 O   0  0  0  0  0  0  0  0  0  0  0  0
   -0.5523    2.7999   -0.7262 H   0  0  0  0  0  0  0  0  0  0  0  0
    0.6730    0.1024    1.5352 C   0  0  0  0  0  0  0  0  0  0  0  0
    1.8632    0.1630    1.8458 O   0  0  0  0  0  0  0  0  0  0  0  0
   -0.3078    0.3385    2.4132 N   0  0  0  0  0  0  0  0  0  0  0  0
   -1.2522    0.1745    2.0907 H   0  0  0  0  0  0  0  0  0  0  0  0
   -0.1009    0.6972    3.8149 C   0  0  0  0  0  0  0  0  0  0  0  0
    0.6727    1.4644    3.8900 H   0  0  0  0  0  0  0  0  0  0  0  0
   -1.0271    1.0779    4.2465 H   0  0  0  0  0  0  0  0  0  0  0  0
    0.2242   -0.1826    4.3741 H   0  0  0  0  0  0  0  0  0  0  0  0
  5  6  2  0  0  0  0
  5  7  1  0  0  0  0
  2  3  1  0  0  0  0
  2  4  1  0  0  0  0
  2  5  1  0  0  0  0
  1  2  1  0  0  0  0
 16 17  2  0  0  0  0
 16 18  1  0  0  0  0
 14 15  1  0  0  0  0
 11 12  1  0  0  0  0
 11 13  1  0  0  0  0
 11 14  1  0  0  0  0
  9 10  1  0  0  0  0
  9 11  1  0  0  0  0
  9 16  1  0  0  0  0
  7  8  1  0  0  0  0
  7  9  1  0  0  0  0
 20 21  1  0  0  0  0
 20 22  1  0  0  0  0
 20 23  1  0  0  0  0
 18 19  1  0  0  0  0
 18 20  1  0  0  0  0
M  END
$$$$
default_name
  -OEChem-01062215323D

 23 22  0     1  0  0  0  0  0999 V2000
   -2.6721   -3.7279    0.7212 H   0  0  0  0  0  0  0  0  0  0  0  0
   -2.6561   -2.6819    0.4162 C   0  0  0  0  0  0  0  0  0  0  0  0
   -3.2401   -2.0889    1.1172 H   0  0  0  0  0  0  0  0  0  0  0  0
   -3.0671   -2.5859   -0.5858 H   0  0  0  0  0  0  0  0  0  0  0  0
   -1.2261   -2.1939    0.4202 C   0  0  0  0  0  0  0  0  0  0  0  0
   -0.3181   -2.9519    0.7312 O   0  0  0  0  0  0  0  0  0  0  0  0
   -1.0281   -0.9259    0.0662 N   0  0  0  0  0  0  0  0  0  0  0  0
   -1.8301   -0.3519   -0.1548 H   0  0  0  0  0  0  0  0  0  0  0  0
    0.2709   -0.2409    0.0912 C   0  0  1  0  0  0  0  0  0  0  0  0
    1.0278   -0.9088   -0.3205 H   0  0  0  0  0  0  0  0  0  0  0  0
    0.2166    1.0140   -0.7898 C   0  0  0  0  0  0  0  0  0  0  0  0
    1.2130    1.4555   -0.8453 H   0  0  0  0  0  0  0  0  0  0  0  0
   -0.1036    0.7394   -1.7964 H   0  0  0  0  0  0  0  0  0  0  0  0
   -0.6759    1.9712   -0.2508 O   0  0  0  0  0  0  0  0  0  0  0  0
   -0.5523    2.7999   -0.7262 H   0  0  0  0  0  0  0  0  0  0  0  0
    0.6730    0.1024    1.5352 C   0  0  0  0  0  0  0  0  0  0  0  0
    1.8314    0.4338    1.7902 O   0  0  0  0  0  0  0  0  0  0  0  0
   -0.2755    0.0374    2.4758 N   0  0  0  0  0  0  0  0  0  0  0  0
   -1.1718   -0.3332    2.1890 H   0  0  0  0  0  0  0  0  0  0  0  0
   -0.0689    0.3503    3.8885 C   0  0  0  0  0  0  0  0  0  0  0  0
    0.5001    1.2777    3.9824 H   0  0  0  0  0  0  0  0  0  0  0  0
   -1.0289    0.4656    4.3925 H   0  0  0  0  0  0  0  0  0  0  0  0
    0.4949   -0.4552    4.3635 H   0  0  0  0  0  0  0  0  0  0  0  0
  5  6  2  0  0  0  0
  5  7  1  0  0  0  0
  2  3  1  0  0  0  0
  2  4  1  0  0  0  0
  2  5  1  0  0  0  0
  1  2  1  0  0  0  0
 16 17  2  0  0  0  0
 16 18  1  0  0  0  0
 14 15  1  0  0  0  0
 11 12  1  0  0  0  0
 11 13  1  0  0  0  0
 11 14  1  0  0  0  0
  9 10  1  0  0  0  0
  9 11  1  0  0  0  0
  9 16  1  0  0  0  0
  7  8  1  0  0  0  0
  7  9  1  0  0  0  0
 20 21  1  0  0  0  0
 20 22  1  0  0  0  0
 20 23  1  0  0  0  0
 18 19  1  0  0  0  0
 18 20  1  0  0  0  0
M  END
$$$$
default_name
  -OEChem-01062215323D

 23 22  0     1  0  0  0  0  0999 V2000
   -2.6721   -3.7279    0.7212 H   0  0  0  0  0  0  0  0  0  0  0  0
   -2.6561   -2.6819    0.4162 C   0  0  0  0  0  0  0  0  0  0  0  0
   -3.2401   -2.0889    1.1172 H   0  0  0  0  0  0  0  0  0  0  0  0
   -3.0671   -2.5859   -0.5858 H   0  0  0  0  0  0  0  0  0  0  0  0
   -1.2261   -2.1939    0.4202 C   0  0  0  0  0  0  0  0  0  0  0  0
   -0.3181   -2.9519    0.7312 O   0  0  0  0  0  0  0  0  0  0  0  0
   -1.0281   -0.9259    0.0662 N   0  0  0  0  0  0  0  0  0  0  0  0
   -1.8301   -0.3519   -0.1548 H   0  0  0  0  0  0  0  0  0  0  0  0
    0.2709   -0.2409    0.0912 C   0  0  1  0  0  0  0  0  0  0  0  0
    1.0278   -0.9088   -0.3205 H   0  0  0  0  0  0  0  0  0  0  0  0
    0.2166    1.0140   -0.7898 C   0  0  0  0  0  0  0  0  0  0  0  0
    1.2130    1.4555   -0.8453 H   0  0  0  0  0  0  0  0  0  0  0  0
   -0.1036    0.7394   -1.7964 H   0  0  0  0  0  0  0  0  0  0  0  0
   -0.6759    1.9712   -0.2508 O   0  0  0  0  0  0  0  0  0  0  0  0
   -0.5523    2.7999   -0.7262 H   0  0  0  0  0  0  0  0  0  0  0  0
    0.6730    0.1024    1.5352 C   0  0  0  0  0  0  0  0  0  0  0  0
    1.7316    0.6915    1.7568 O   0  0  0  0  0  0  0  0  0  0  0  0
   -0.1675   -0.2499    2.5140 N   0  0  0  0  0  0  0  0  0  0  0  0
   -0.9650   -0.8107    2.2449 H   0  0  0  0  0  0  0  0  0  0  0  0
    0.0505    0.0180    3.9342 C   0  0  0  0  0  0  0  0  0  0  0  0
    0.3842    1.0491    4.0690 H   0  0  0  0  0  0  0  0  0  0  0  0
   -0.8735   -0.1361    4.4923 H   0  0  0  0  0  0  0  0  0  0  0  0
    0.8221   -0.6519    4.3192 H   0  0  0  0  0  0  0  0  0  0  0  0
  5  6  2  0  0  0  0
  5  7  1  0  0  0  0
  2  3  1  0  0  0  0
  2  4  1  0  0  0  0
  2  5  1  0  0  0  0
  1  2  1  0  0  0  0
 16 17  2  0  0  0  0
 16 18  1  0  0  0  0
 14 15  1  0  0  0  0
 11 12  1  0  0  0  0
 11 13  1  0  0  0  0
 11 14  1  0  0  0  0
  9 10  1  0  0  0  0
  9 11  1  0  0  0  0
  9 16  1  0  0  0  0
  7  8  1  0  0  0  0
  7  9  1  0  0  0  0
 20 21  1  0  0  0  0
 20 22  1  0  0  0  0
 20 23  1  0  0  0  0
 18 19  1  0  0  0  0
 18 20  1  0  0  0  0
M  END
$$$$
default_name
  -OEChem-01062215323D

 23 22  0     1  0  0  0  0  0999 V2000
   -2.6721   -3.7279    0.7212 H   0  0  0  0  0  0  0  0  0  0  0  0
   -2.6561   -2.6819    0.4162 C   0  0  0  0  0  0  0  0  0  0  0  0
   -3.2401   -2.0889    1.1172 H   0  0  0  0  0  0  0  0  0  0  0  0
   -3.0671   -2.5859   -0.5858 H   0  0  0  0  0  0  0  0  0  0  0  0
   -1.2261   -2.1939    0.4202 C   0  0  0  0  0  0  0  0  0  0  0  0
   -0.3181   -2.9519    0.7312 O   0  0  0  0  0  0  0  0  0  0  0  0
   -1.0281   -0.9259    0.0662 N   0  0  0  0  0  0  0  0  0  0  0  0
   -1.8301   -0.3519   -0.1548 H   0  0  0  0  0  0  0  0  0  0  0  0
    0.2709   -0.2409    0.0912 C   0  0  1  0  0  0  0  0  0  0  0  0
    1.0278   -0.9088   -0.3205 H   0  0  0  0  0  0  0  0  0  0  0  0
    0.2166    1.0140   -0.7898 C   0  0  0  0  0  0  0  0  0  0  0  0
    1.2130    1.4555   -0.8453 H   0  0  0  0  0  0  0  0  0  0  0  0
   -0.1036    0.7394   -1.7964 H   0  0  0  0  0  0  0  0  0  0  0  0
   -0.6759    1.9712   -0.2508 O   0  0  0  0  0  0  0  0  0  0  0  0
   -0.5523    2.7999   -0.7262 H   0  0  0  0  0  0  0  0  0  0  0  0
    0.6730    0.1024    1.5352 C   0  0  0  0  0  0  0  0  0  0  0  0
    1.5706    0.9184    1.7477 O   0  0  0  0  0  0  0  0  0  0  0  0
    0.0089   -0.5037    2.5253 N   0  0  0  0  0  0  0  0  0  0  0  0
   -0.6459   -1.2254    2.2547 H   0  0  0  0  0  0  0  0  0  0  0  0
    0.2493   -0.2770    3.9490 C   0  0  0  0  0  0  0  0  0  0  0  0
    0.3327    0.7943    4.1439 H   0  0  0  0  0  0  0  0  0  0  0  0
   -0.5713   -0.6864    4.5389 H   0  0  0  0  0  0  0  0  0  0  0  0
    1.1833   -0.7595    4.2442 H   0  0  0  0  0  0  0  0  0  0  0  0
  5  6  2  0  0  0  0
  5  7  1  0  0  0  0
  2  3  1  0  0  0  0
  2  4  1  0  0  0  0
  2  5  1  0  0  0  0
  1  2  1  0  0  0  0
 16 17  2  0  0  0  0
 16 18  1  0  0  0  0
 14 15  1  0  0  0  0
 11 12  1  0  0  0  0
 11 13  1  0  0  0  0
 11 14  1  0  0  0  0
  9 10  1  0  0  0  0
  9 11  1  0  0  0  0
  9 16  1  0  0  0  0
  7  8  1  0  0  0  0
  7  9  1  0  0  0  0
 20 21  1  0  0  0  0
 20 22  1  0  0  0  0
 20 23  1  0  0  0  0
 18 19  1  0  0  0  0
 18 20  1  0  0  0  0
M  END
$$$$
default_name
  -OEChem-01062215323D

 23 22  0     1  0  0  0  0  0999 V2000
   -2.6721   -3.7279    0.7212 H   0  0  0  0  0  0  0  0  0  0  0  0
   -2.6561   -2.6819    0.4162 C   0  0  0  0  0  0  0  0  0  0  0  0
   -3.2401   -2.0889    1.1172 H   0  0  0  0  0  0  0  0  0  0  0  0
   -3.0671   -2.5859   -0.5858 H   0  0  0  0  0  0  0  0  0  0  0  0
   -1.2261   -2.1939    0.4202 C   0  0  0  0  0  0  0  0  0  0  0  0
   -0.3181   -2.9519    0.7312 O   0  0  0  0  0  0  0  0  0  0  0  0
   -1.0281   -0.9259    0.0662 N   0  0  0  0  0  0  0  0  0  0  0  0
   -1.8301   -0.3519   -0.1548 H   0  0  0  0  0  0  0  0  0  0  0  0
    0.2709   -0.2409    0.0912 C   0  0  1  0  0  0  0  0  0  0  0  0
    1.0278   -0.9088   -0.3205 H   0  0  0  0  0  0  0  0  0  0  0  0
    0.2166    1.0140   -0.7898 C   0  0  0  0  0  0  0  0  0  0  0  0
    1.2130    1.4555   -0.8453 H   0  0  0  0  0  0  0  0  0  0  0  0
   -0.1036    0.7394   -1.7964 H   0  0  0  0  0  0  0  0  0  0  0  0
   -0.6759    1.9712   -0.2508 O   0  0  0  0  0  0  0  0  0  0  0  0
   -0.5523    2.7999   -0.7262 H   0  0  0  0  0  0  0  0  0  0  0  0
    0.6730    0.1024    1.5352 C   0  0  0  0  0  0  0  0  0  0  0  0
    1.3595    1.0991    1.7635 O   0  0  0  0  0  0  0  0  0  0  0  0
    0.2415   -0.7067    2.5087 N   0  0  0  0  0  0  0  0  0  0  0  0
   -0.2364   -1.5491    2.2176 H   0  0  0  0  0  0  0  0  0  0  0  0
    0.5138   -0.5146    3.9318 C   0  0  0  0  0  0  0  0  0  0  0  0
    0.3493    0.5306    4.2020 H   0  0  0  0  0  0  0  0  0  0  0  0
   -0.1430   -1.1475    4.5293 H   0  0  0  0  0  0  0  0  0  0  0  0
    1.5540   -0.7706    4.1436 H   0  0  0  0  0  0  0  0  0  0  0  0
  5  6  2  0  0  0  0
  5  7  1  0  0  0  0
  2  3  1  0  0  0  0
  2  4  1  0  0  0  0
  2  5  1  0  0  0  0
  1  2  1  0  0  0  0
 16 17  2  0  0  0  0
 16 18  1  0  0  0  0
 14 15  1  0  0  0  0
 11 12  1  0  0  0  0
 11 13  1  0  0  0  0
 11 14  1  0  0  0  0
  9 10  1  0  0  0  0
  9 11  1  0  0  0  0
  9 16  1  0  0  0  0
  7  8  1  0  0  0  0
  7  9  1  0  0  0  0
 20 21  1  0  0  0  0
 20 22  1  0  0  0  0
 20 23  1  0  0  0  0
 18 19  1  0  0  0  0
 18 20  1  0  0  0  0
M  END
$$$$
default_name
  -OEChem-01062215323D

 23 22  0     1  0  0  0  0  0999 V2000
   -2.6721   -3.7279    0.7212 H   0  0  0  0  0  0  0  0  0  0  0  0
   -2.6561   -2.6819    0.4162 C   0  0  0  0  0  0  0  0  0  0  0  0
   -3.2401   -2.0889    1.1172 H   0  0  0  0  0  0  0  0  0  0  0  0
   -3.0671   -2.5859   -0.5858 H   0  0  0  0  0  0  0  0  0  0  0  0
   -1.2261   -2.1939    0.4202 C   0  0  0  0  0  0  0  0  0  0  0  0
   -0.3181   -2.9519    0.7312 O   0  0  0  0  0  0  0  0  0  0  0  0
   -1.0281   -0.9259    0.0662 N   0  0  0  0  0  0  0  0  0  0  0  0
   -1.8301   -0.3519   -0.1548 H   0  0  0  0  0  0  0  0  0  0  0  0
    0.2709   -0.2409    0.0912 C   0  0  1  0  0  0  0  0  0  0  0  0
    1.0278   -0.9088   -0.3205 H   0  0  0  0  0  0  0  0  0  0  0  0
    0.2166    1.0140   -0.7898 C   0  0  0  0  0  0  0  0  0  0  0  0
    1.2130    1.4555   -0.8453 H   0  0  0  0  0  0  0  0  0  0  0  0
   -0.1036    0.7394   -1.7964 H   0  0  0  0  0  0  0  0  0  0  0  0
   -0.6759    1.9712   -0.2508 O   0  0  0  0  0  0  0  0  0  0  0  0
   -0.5523    2.7999   -0.7262 H   0  0  0  0  0  0  0  0  0  0  0  0
    0.6730    0.1024    1.5352 C   0  0  0  0  0  0  0  0  0  0  0  0
    1.1125    1.2212    1.8032 O   0  0  0  0  0  0  0  0  0  0  0  0
    0.5146   -0.8452    2.4656 N   0  0  0  0  0  0  0  0  0  0  0  0
    0.2357   -1.7598    2.1362 H   0  0  0  0  0  0  0  0  0  0  0  0
    0.8261   -0.6787    3.8839 C   0  0  0  0  0  0  0  0  0  0  0  0
    0.4327    0.2760    4.2393 H   0  0  0  0  0  0  0  0  0  0  0  0
    0.3822   -1.4882    4.4640 H   0  0  0  0  0  0  0  0  0  0  0  0
    1.9090   -0.6843    4.0242 H   0  0  0  0  0  0  0  0  0  0  0  0
  5  6  2  0  0  0  0
  5  7  1  0  0  0  0
  2  3  1  0  0  0  0
  2  4  1  0  0  0  0
  2  5  1  0  0  0  0
  1  2  1  0  0  0  0
 16 17  2  0  0  0  0
 16 18  1  0  0  0  0
 14 15  1  0  0  0  0
 11 12  1  0  0  0  0
 11 13  1  0  0  0  0
 11 14  1  0  0  0  0
  9 10  1  0  0  0  0
  9 11  1  0  0  0  0
  9 16  1  0  0  0  0
  7  8  1  0  0  0  0
  7  9  1  0  0  0  0
 20 21  1  0  0  0  0
 20 22  1  0  0  0  0
 20 23  1  0  0  0  0
 18 19  1  0  0  0  0
 18 20  1  0  0  0  0
M  END
$$$$
default_name
  -OEChem-01062215323D

 23 22  0     1  0  0  0  0  0999 V2000
   -2.6721   -3.7279    0.7212 H   0  0  0  0  0  0  0  0  0  0  0  0
   -2.6561   -2.6819    0.4162 C   0  0  0  0  0  0  0  0  0  0  0  0
   -3.2401   -2.0889    1.1172 H   0  0  0  0  0  0  0  0  0  0  0  0
   -3.0671   -2.5859   -0.5858 H   0  0  0  0  0  0  0  0  0  0  0  0
   -1.2261   -2.1939    0.4202 C   0  0  0  0  0  0  0  0  0  0  0  0
   -0.3181   -2.9519    0.7312 O   0  0  0  0  0  0  0  0  0  0  0  0
   -1.0281   -0.9259    0.0662 N   0  0  0  0  0  0  0  0  0  0  0  0
   -1.8301   -0.3519   -0.1548 H   0  0  0  0  0  0  0  0  0  0  0  0
    0.2709   -0.2409    0.0912 C   0  0  1  0  0  0  0  0  0  0  0  0
    1.0278   -0.9088   -0.3205 H   0  0  0  0  0  0  0  0  0  0  0  0
    0.2166    1.0140   -0.7898 C   0  0  0  0  0  0  0  0  0  0  0  0
    1.2130    1.4555   -0.8453 H   0  0  0  0  0  0  0  0  0  0  0  0
   -0.1036    0.7394   -1.7964 H   0  0  0  0  0  0  0  0  0  0  0  0
   -0.6759    1.9712   -0.2508 O   0  0  0  0  0  0  0  0  0  0  0  0
   -0.5523    2.7999   -0.7262 H   0  0  0  0  0  0  0  0  0  0  0  0
    0.6730    0.1024    1.5352 C   0  0  0  0  0  0  0  0  0  0  0  0
    0.8466    1.2765    1.8641 O   0  0  0  0  0  0  0  0  0  0  0  0
    0.8096   -0.9096    2.3988 N   0  0  0  0  0  0  0  0  0  0  0  0
    0.7382   -1.8430    2.0161 H   0  0  0  0  0  0  0  0  0  0  0  0
    1.1649   -0.7581    3.8084 C   0  0  0  0  0  0  0  0  0  0  0  0
    0.5773    0.0478    4.2533 H   0  0  0  0  0  0  0  0  0  0  0  0
    0.9686   -1.6853    4.3476 H   0  0  0  0  0  0  0  0  0  0  0  0
    2.2241   -0.5066    3.8943 H   0  0  0  0  0  0  0  0  0  0  0  0
  5  6  2  0  0  0  0
  5  7  1  0  0  0  0
  2  3  1  0  0  0  0
  2  4  1  0  0  0  0
  2  5  1  0  0  0  0
  1  2  1  0  0  0  0
 16 17  2  0  0  0  0
 16 18  1  0  0  0  0
 14 15  1  0  0  0  0
 11 12  1  0  0  0  0
 11 13  1  0  0  0  0
 11 14  1  0  0  0  0
  9 10  1  0  0  0  0
  9 11  1  0  0  0  0
  9 16  1  0  0  0  0
  7  8  1  0  0  0  0
  7  9  1  0  0  0  0
 20 21  1  0  0  0  0
 20 22  1  0  0  0  0
 20 23  1  0  0  0  0
 18 19  1  0  0  0  0
 18 20  1  0  0  0  0
M  END
$$$$
default_name
  -OEChem-01062215323D

 23 22  0     1  0  0  0  0  0999 V2000
   -2.6721   -3.7279    0.7212 H   0  0  0  0  0  0  0  0  0  0  0  0
   -2.6561   -2.6819    0.4162 C   0  0  0  0  0  0  0  0  0  0  0  0
   -3.2401   -2.0889    1.1172 H   0  0  0  0  0  0  0  0  0  0  0  0
   -3.0671   -2.5859   -0.5858 H   0  0  0  0  0  0  0  0  0  0  0  0
   -1.2261   -2.1939    0.4202 C   0  0  0  0  0  0  0  0  0  0  0  0
   -0.3181   -2.9519    0.7312 O   0  0  0  0  0  0  0  0  0  0  0  0
   -1.0281   -0.9259    0.0662 N   0  0  0  0  0  0  0  0  0  0  0  0
   -1.8301   -0.3519   -0.1548 H   0  0  0  0  0  0  0  0  0  0  0  0
    0.2709   -0.2409    0.0912 C   0  0  1  0  0  0  0  0  0  0  0  0
    1.0278   -0.9088   -0.3205 H   0  0  0  0  0  0  0  0  0  0  0  0
    0.2166    1.0140   -0.7898 C   0  0  0  0  0  0  0  0  0  0  0  0
    1.2130    1.4555   -0.8453 H   0  0  0  0  0  0  0  0  0  0  0  0
   -0.1036    0.7394   -1.7964 H   0  0  0  0  0  0  0  0  0  0  0  0
   -0.6759    1.9712   -0.2508 O   0  0  0  0  0  0  0  0  0  0  0  0
   -0.5523    2.7999   -0.7262 H   0  0  0  0  0  0  0  0  0  0  0  0
    0.6730    0.1024    1.5352 C   0  0  0  0  0  0  0  0  0  0  0  0
    0.5798    1.2611    1.9421 O   0  0  0  0  0  0  0  0  0  0  0  0
    1.1063   -0.8956    2.3128 N   0  0  0  0  0  0  0  0  0  0  0  0
    1.2369   -1.7932    1.8653 H   0  0  0  0  0  0  0  0  0  0  0  0
    1.5071   -0.7473    3.7106 C   0  0  0  0  0  0  0  0  0  0  0  0
    0.7733   -0.1384    4.2430 H   0  0  0  0  0  0  0  0  0  0  0  0
    1.5762   -1.7252    4.1879 H   0  0  0  0  0  0  0  0  0  0  0  0
    2.4777   -0.2497    3.7626 H   0  0  0  0  0  0  0  0  0  0  0  0
  5  6  2  0  0  0  0
  5  7  1  0  0  0  0
  2  3  1  0  0  0  0
  2  4  1  0  0  0  0
  2  5  1  0  0  0  0
  1  2  1  0  0  0  0
 16 17  2  0  0  0  0
 16 18  1  0  0  0  0
 14 15  1  0  0  0  0
 11 12  1  0  0  0  0
 11 13  1  0  0  0  0
 11 14  1  0  0  0  0
  9 10  1  0  0  0  0
  9 11  1  0  0  0  0
  9 16  1  0  0  0  0
  7  8  1  0  0  0  0
  7  9  1  0  0  0  0
 20 21  1  0  0  0  0
 20 22  1  0  0  0  0
 20 23  1  0  0  0  0
 18 19  1  0  0  0  0
 18 20  1  0  0  0  0
M  END
$$$$
default_name
  -OEChem-01062215323D

 23 22  0     1  0  0  0  0  0999 V2000
   -2.6721   -3.7279    0.7212 H   0  0  0  0  0  0  0  0  0  0  0  0
   -2.6561   -2.6819    0.4162 C   0  0  0  0  0  0  0  0  0  0  0  0
   -3.2401   -2.0889    1.1172 H   0  0  0  0  0  0  0  0  0  0  0  0
   -3.0671   -2.5859   -0.5858 H   0  0  0  0  0  0  0  0  0  0  0  0
   -1.2261   -2.1939    0.4202 C   0  0  0  0  0  0  0  0  0  0  0  0
   -0.3181   -2.9519    0.7312 O   0  0  0  0  0  0  0  0  0  0  0  0
   -1.0281   -0.9259    0.0662 N   0  0  0  0  0  0  0  0  0  0  0  0
   -1.8301   -0.3519   -0.1548 H   0  0  0  0  0  0  0  0  0  0  0  0
    0.2709   -0.2409    0.0912 C   0  0  1  0  0  0  0  0  0  0  0  0
    1.0278   -0.9088   -0.3205 H   0  0  0  0  0  0  0  0  0  0  0  0
    0.2166    1.0140   -0.7898 C   0  0  0  0  0  0  0  0  0  0  0  0
    1.2130    1.4555   -0.8453 H   0  0  0  0  0  0  0  0  0  0  0  0
   -0.1036    0.7394   -1.7964 H   0  0  0  0  0  0  0  0  0  0  0  0
   -0.6759    1.9712   -0.2508 O   0  0  0  0  0  0  0  0  0  0  0  0
   -0.5523    2.7999   -0.7262 H   0  0  0  0  0  0  0  0  0  0  0  0
    0.6730    0.1024    1.5352 C   0  0  0  0  0  0  0  0  0  0  0  0
    0.3304    1.1761    2.0317 O   0  0  0  0  0  0  0  0  0  0  0  0
    1.3846   -0.8042    2.2136 N   0  0  0  0  0  0  0  0  0  0  0  0
    1.6978   -1.6136    1.6943 H   0  0  0  0  0  0  0  0  0  0  0  0
    1.8293   -0.6471    3.5970 C   0  0  0  0  0  0  0  0  0  0  0  0
    1.0073   -0.2699    4.2091 H   0  0  0  0  0  0  0  0  0  0  0  0
    2.1635   -1.6053    3.9958 H   0  0  0  0  0  0  0  0  0  0  0  0
    2.6526    0.0691    3.6381 H   0  0  0  0  0  0  0  0  0  0  0  0
  5  6  2  0  0  0  0
  5  7  1  0  0  0  0
  2  3  1  0  0  0  0
  2  4  1  0  0  0  0
  2  5  1  0  0  0  0
  1  2  1  0  0  0  0
 16 17  2  0  0  0  0
 16 18  1  0  0  0  0
 14 15  1  0  0  0  0
 11 12  1  0  0  0  0
 11 13  1  0  0  0  0
 11 14  1  0  0  0  0
  9 10  1  0  0  0  0
  9 11  1  0  0  0  0
  9 16  1  0  0  0  0
  7  8  1  0  0  0  0
  7  9  1  0  0  0  0
 20 21  1  0  0  0  0
 20 22  1  0  0  0  0
 20 23  1  0  0  0  0
 18 19  1  0  0  0  0
 18 20  1  0  0  0  0
M  END
$$$$
default_name
  -OEChem-01062215323D

 23 22  0     1  0  0  0  0  0999 V2000
   -2.6721   -3.7279    0.7212 H   0  0  0  0  0  0  0  0  0  0  0  0
   -2.6561   -2.6819    0.4162 C   0  0  0  0  0  0  0  0  0  0  0  0
   -3.2401   -2.0889    1.1172 H   0  0  0  0  0  0  0  0  0  0  0  0
   -3.0671   -2.5859   -0.5858 H   0  0  0  0  0  0  0  0  0  0  0  0
   -1.2261   -2.1939    0.4202 C   0  0  0  0  0  0  0  0  0  0  0  0
   -0.3181   -2.9519    0.7312 O   0  0  0  0  0  0  0  0  0  0  0  0
   -1.0281   -0.9259    0.0662 N   0  0  0  0  0  0  0  0  0  0  0  0
   -1.8301   -0.3519   -0.1548 H   0  0  0  0  0  0  0  0  0  0  0  0
    0.2709   -0.2409    0.0912 C   0  0  1  0  0  0  0  0  0  0  0  0
    1.0278   -0.9088   -0.3205 H   0  0  0  0  0  0  0  0  0  0  0  0
    0.2166    1.0140   -0.7898 C   0  0  0  0  0  0  0  0  0  0  0  0
    1.2130    1.4555   -0.8453 H   0  0  0  0  0  0  0  0  0  0  0  0
   -0.1036    0.7394   -1.7964 H   0  0  0  0  0  0  0  0  0  0  0  0
   -0.6759    1.9712   -0.2508 O   0  0  0  0  0  0  0  0  0  0  0  0
   -0.5523    2.7999   -0.7262 H   0  0  0  0  0  0  0  0  0  0  0  0
    0.6730    0.1024    1.5352 C   0  0  0  0  0  0  0  0  0  0  0  0
    0.1153    1.0274    2.1270 O   0  0  0  0  0  0  0  0  0  0  0  0
    1.6254   -0.6415    2.1079 N   0  0  0  0  0  0  0  0  0  0  0  0
    2.0894   -1.3166    1.5147 H   0  0  0  0  0  0  0  0  0  0  0  0
    2.1096   -0.4643    3.4755 C   0  0  0  0  0  0  0  0  0  0  0  0
    1.2632   -0.3378    4.1540 H   0  0  0  0  0  0  0  0  0  0  0  0
    2.6906   -1.3337    3.7845 H   0  0  0  0  0  0  0  0  0  0  0  0
    2.7368    0.4280    3.5293 H   0  0  0  0  0  0  0  0  0  0  0  0
  5  6  2  0  0  0  0
  5  7  1  0  0  0  0
  2  3  1  0  0  0  0
  2  4  1  0  0  0  0
  2  5  1  0  0  0  0
  1  2  1  0  0  0  0
 16 17  2  0  0  0  0
 16 18  1  0  0  0  0
 14 15  1  0  0  0  0
 11 12  1  0  0  0  0
 11 13  1  0  0  0  0
 11 14  1  0  0  0  0
  9 10  1  0  0  0  0
  9 11  1  0  0  0  0
  9 16  1  0  0  0  0
  7  8  1  0  0  0  0
  7  9  1  0  0  0  0
 20 21  1  0  0  0  0
 20 22  1  0  0  0  0
 20 23  1  0  0  0  0
 18 19  1  0  0  0  0
 18 20  1  0  0  0  0
M  END
$$$$
default_name
  -OEChem-01062215323D

 23 22  0     1  0  0  0  0  0999 V2000
   -2.6721   -3.7279    0.7212 H   0  0  0  0  0  0  0  0  0  0  0  0
   -2.6561   -2.6819    0.4162 C   0  0  0  0  0  0  0  0  0  0  0  0
   -3.2401   -2.0889    1.1172 H   0  0  0  0  0  0  0  0  0  0  0  0
   -3.0671   -2.5859   -0.5858 H   0  0  0  0  0  0  0  0  0  0  0  0
   -1.2261   -2.1939    0.4202 C   0  0  0  0  0  0  0  0  0  0  0  0
   -0.3181   -2.9519    0.7312 O   0  0  0  0  0  0  0  0  0  0  0  0
   -1.0281   -0.9259    0.0662 N   0  0  0  0  0  0  0  0  0  0  0  0
   -1.8301   -0.3519   -0.1548 H   0  0  0  0  0  0  0  0  0  0  0  0
    0.2709   -0.2409    0.0912 C   0  0  1  0  0  0  0  0  0  0  0  0
    1.0278   -0.9088   -0.3205 H   0  0  0  0  0  0  0  0  0  0  0  0
    0.2166    1.0140   -0.7898 C   0  0  0  0  0  0  0  0  0  0  0  0
    1.2130    1.4555   -0.8453 H   0  0  0  0  0  0  0  0  0  0  0  0
   -0.1036    0.7394   -1.7964 H   0  0  0  0  0  0  0  0  0  0  0  0
   -0.6759    1.9712   -0.2508 O   0  0  0  0  0  0  0  0  0  0  0  0
   -0.5523    2.7999   -0.7262 H   0  0  0  0  0  0  0  0  0  0  0  0
    0.6730    0.1024    1.5352 C   0  0  0  0  0  0  0  0  0  0  0  0
   -0.0508    0.8249    2.2214 O   0  0  0  0  0  0  0  0  0  0  0  0
    1.8124   -0.4187    2.0029 N   0  0  0  0  0  0  0  0  0  0  0  0
    2.3851   -0.9223    1.3386 H   0  0  0  0  0  0  0  0  0  0  0  0
    2.3290   -0.2114    3.3543 C   0  0  0  0  0  0  0  0  0  0  0  0
    1.5238   -0.3374    4.0813 H   0  0  0  0  0  0  0  0  0  0  0  0
    3.1215   -0.9290    3.5683 H   0  0  0  0  0  0  0  0  0  0  0  0
    2.7247    0.8024    3.4437 H   0  0  0  0  0  0  0  0  0  0  0  0
  5  6  2  0  0  0  0
  5  7  1  0  0  0  0
  2  3  1  0  0  0  0
  2  4  1  0  0  0  0
  2  5  1  0  0  0  0
  1  2  1  0  0  0  0
 16 17  2  0  0  0  0
 16 18  1  0  0  0  0
 14 15  1  0  0  0  0
 11 12  1  0  0  0  0
 11 13  1  0  0  0  0
 11 14  1  0  0  0  0
  9 10  1  0  0  0  0
  9 11  1  0  0  0  0
  9 16  1  0  0  0  0
  7  8  1  0  0  0  0
  7  9  1  0  0  0  0
 20 21  1  0  0  0  0
 20 22  1  0  0  0  0
 20 23  1  0  0  0  0
 18 19  1  0  0  0  0
 18 20  1  0  0  0  0
M  END
$$$$
default_name
  -OEChem-01062215323D

 23 22  0     1  0  0  0  0  0999 V2000
   -2.6721   -3.7279    0.7212 H   0  0  0  0  0  0  0  0  0  0  0  0
   -2.6561   -2.6819    0.4162 C   0  0  0  0  0  0  0  0  0  0  0  0
   -3.2401   -2.0889    1.1172 H   0  0  0  0  0  0  0  0  0  0  0  0
   -3.0671   -2.5859   -0.5858 H   0  0  0  0  0  0  0  0  0  0  0  0
   -1.2261   -2.1939    0.4202 C   0  0  0  0  0  0  0  0  0  0  0  0
   -0.3181   -2.9519    0.7312 O   0  0  0  0  0  0  0  0  0  0  0  0
   -1.0281   -0.9259    0.0662 N   0  0  0  0  0  0  0  0  0  0  0  0
   -1.8301   -0.3519   -0.1548 H   0  0  0  0  0  0  0  0  0  0  0  0
    0.2709   -0.2409    0.0912 C   0  0  1  0  0  0  0  0  0  0  0  0
    1.0278   -0.9088   -0.3205 H   0  0  0  0  0  0  0  0  0  0  0  0
    0.2166    1.0140   -0.7898 C   0  0  0  0  0  0  0  0  0  0  0  0
    1.2130    1.4555   -0.8453 H   0  0  0  0  0  0  0  0  0  0  0  0
   -0.1036    0.7394   -1.7964 H   0  0  0  0  0  0  0  0  0  0  0  0
   -0.6759    1.9712   -0.2508 O   0  0  0  0  0  0  0  0  0  0  0  0
   -0.5523    2.7999   -0.7262 H   0  0  0  0  0  0  0  0  0  0  0  0
    0.6730    0.1024    1.5352 C   0  0  0  0  0  0  0  0  0  0  0  0
   -0.1566    0.5827    2.3084 O   0  0  0  0  0  0  0  0  0  0  0  0
    1.9328   -0.1510    1.9057 N   0  0  0  0  0  0  0  0  0  0  0  0
    2.5648   -0.4577    1.1781 H   0  0  0  0  0  0  0  0  0  0  0  0
    2.4723    0.0944    3.2417 C   0  0  0  0  0  0  0  0  0  0  0  0
    1.7712   -0.2688    3.9961 H   0  0  0  0  0  0  0  0  0  0  0  0
    3.4269   -0.4187    3.3620 H   0  0  0  0  0  0  0  0  0  0  0  0
    2.6171    1.1670    3.3870 H   0  0  0  0  0  0  0  0  0  0  0  0
  5  6  2  0  0  0  0
  5  7  1  0  0  0  0
  2  3  1  0  0  0  0
  2  4  1  0  0  0  0
  2  5  1  0  0  0  0
  1  2  1  0  0  0  0
 16 17  2  0  0  0  0
 16 18  1  0  0  0  0
 14 15  1  0  0  0  0
 11 12  1  0  0  0  0
 11 13  1  0  0  0  0
 11 14  1  0  0  0  0
  9 10  1  0  0  0  0
  9 11  1  0  0  0  0
  9 16  1  0  0  0  0
  7  8  1  0  0  0  0
  7  9  1  0  0  0  0
 20 21  1  0  0  0  0
 20 22  1  0  0  0  0
 20 23  1  0  0  0  0
 18 19  1  0  0  0  0
 18 20  1  0  0  0  0
M  END
$$$$
default_name
  -OEChem-01062215323D

 23 22  0     1  0  0  0  0  0999 V2000
   -2.6721   -3.7279    0.7212 H   0  0  0  0  0  0  0  0  0  0  0  0
   -2.6561   -2.6819    0.4162 C   0  0  0  0  0  0  0  0  0  0  0  0
   -3.2401   -2.0889    1.1172 H   0  0  0  0  0  0  0  0  0  0  0  0
   -3.0671   -2.5859   -0.5858 H   0  0  0  0  0  0  0  0  0  0  0  0
   -1.2261   -2.1939    0.4202 C   0  0  0  0  0  0  0  0  0  0  0  0
   -0.3181   -2.9519    0.7312 O   0  0  0  0  0  0  0  0  0  0  0  0
   -1.0281   -0.9259    0.0662 N   0  0  0  0  0  0  0  0  0  0  0  0
   -1.8301   -0.3519   -0.1548 H   0  0  0  0  0  0  0  0  0  0  0  0
    0.2709   -0.2409    0.0912 C   0  0  1  0  0  0  0  0  0  0  0  0
    1.0278   -0.9088   -0.3205 H   0  0  0  0  0  0  0  0  0  0  0  0
    0.2166    1.0140   -0.7898 C   0  0  0  0  0  0  0  0  0  0  0  0
    1.2130    1.4555   -0.8453 H   0  0  0  0  0  0  0  0  0  0  0  0
   -0.1036    0.7394   -1.7964 H   0  0  0  0  0  0  0  0  0  0  0  0
   -0.6759    1.9712   -0.2508 O   0  0  0  0  0  0  0  0  0  0  0  0
   -0.5523    2.7999   -0.7262 H   0  0  0  0  0  0  0  0  0  0  0  0
    0.6730    0.1024    1.5352 C   0  0  0  0  0  0  0  0  0  0  0  0
   -0.1949    0.3170    2.3822 O   0  0  0  0  0  0  0  0  0  0  0  0
    1.9784    0.1435    1.8230 N   0  0  0  0  0  0  0  0  0  0  0  0
    2.6161    0.0456    1.0442 H   0  0  0  0  0  0  0  0  0  0  0  0
    2.5300    0.4323    3.1453 C   0  0  0  0  0  0  0  0  0  0  0  0
    1.9886   -0.1367    3.9042 H   0  0  0  0  0  0  0  0  0  0  0  0
    3.5859    0.1623    3.1796 H   0  0  0  0  0  0  0  0  0  0  0  0
    2.4212    1.4968    3.3631 H   0  0  0  0  0  0  0  0  0  0  0  0
  5  6  2  0  0  0  0
  5  7  1  0  0  0  0
  2  3  1  0  0  0  0
  2  4  1  0  0  0  0
  2  5  1  0  0  0  0
  1  2  1  0  0  0  0
 16 17  2  0  0  0  0
 16 18  1  0  0  0  0
 14 15  1  0  0  0  0
 11 12  1  0  0  0  0
 11 13  1  0  0  0  0
 11 14  1  0  0  0  0
  9 10  1  0  0  0  0
  9 11  1  0  0  0  0
  9 16  1  0  0  0  0
  7  8  1  0  0  0  0
  7  9  1  0  0  0  0
 20 21  1  0  0  0  0
 20 22  1  0  0  0  0
 20 23  1  0  0  0  0
 18 19  1  0  0  0  0
 18 20  1  0  0  0  0
M  END
$$$$
default_name
  -OEChem-01062215323D

 23 22  0     1  0  0  0  0  0999 V2000
   -2.6721   -3.7279    0.7212 H   0  0  0  0  0  0  0  0  0  0  0  0
   -2.6561   -2.6819    0.4162 C   0  0  0  0  0  0  0  0  0  0  0  0
   -3.2401   -2.0889    1.1172 H   0  0  0  0  0  0  0  0  0  0  0  0
   -3.0671   -2.5859   -0.5858 H   0  0  0  0  0  0  0  0  0  0  0  0
   -1.2261   -2.1939    0.4202 C   0  0  0  0  0  0  0  0  0  0  0  0
   -0.3181   -2.9519    0.7312 O   0  0  0  0  0  0  0  0  0  0  0  0
   -1.0281   -0.9259    0.0662 N   0  0  0  0  0  0  0  0  0  0  0  0
   -1.8301   -0.3519   -0.1548 H   0  0  0  0  0  0  0  0  0  0  0  0
    0.2709   -0.2409    0.0912 C   0  0  1  0  0  0  0  0  0  0  0  0
    1.0278   -0.9088   -0.3205 H   0  0  0  0  0  0  0  0  0  0  0  0
    0.2166    1.0140   -0.7898 C   0  0  0  0  0  0  0  0  0  0  0  0
    1.2130    1.4555   -0.8453 H   0  0  0  0  0  0  0  0  0  0  0  0
   -0.1036    0.7394   -1.7964 H   0  0  0  0  0  0  0  0  0  0  0  0
   -0.6759    1.9712   -0.2508 O   0  0  0  0  0  0  0  0  0  0  0  0
   -0.5523    2.7999   -0.7262 H   0  0  0  0  0  0  0  0  0  0  0  0
    0.6730    0.1024    1.5352 C   0  0  0  0  0  0  0  0  0  0  0  0
   -0.1631    0.0461    2.4378 O   0  0  0  0  0  0  0  0  0  0  0  0
    1.9461    0.4446    1.7604 N   0  0  0  0  0  0  0  0  0  0  0  0
    2.5357    0.5533    0.9459 H   0  0  0  0  0  0  0  0  0  0  0  0
    2.4980    0.7792    3.0717 C   0  0  0  0  0  0  0  0  0  0  0  0
    2.1612    0.0500    3.8117 H   0  0  0  0  0  0  0  0  0  0  0  0
    3.5877    0.7746    3.0335 H   0  0  0  0  0  0  0  0  0  0  0  0
    2.1505    1.7693    3.3737 H   0  0  0  0  0  0  0  0  0  0  0  0
  5  6  2  0  0  0  0
  5  7  1  0  0  0  0
  2  3  1  0  0  0  0
  2  4  1  0  0  0  0
  2  5  1  0  0  0  0
  1  2  1  0  0  0  0
 16 17  2  0  0  0  0
 16 18  1  0  0  0  0
 14 15  1  0  0  0  0
 11 12  1  0  0  0  0
 11 13  1  0  0  0  0
 11 14  1  0  0  0  0
  9 10  1  0  0  0  0
  9 11  1  0  0  0  0
  9 16  1  0  0  0  0
  7  8  1  0  0  0  0
  7  9  1  0  0  0  0
 20 21  1  0  0  0  0
 20 22  1  0  0  0  0
 20 23  1  0  0  0  0
 18 19  1  0  0  0  0
 18 20  1  0  0  0  0
M  END
$$$$
default_name
  -OEChem-01062215323D

 23 22  0     1  0  0  0  0  0999 V2000
   -2.6721   -3.7279    0.7212 H   0  0  0  0  0  0  0  0  0  0  0  0
   -2.6561   -2.6819    0.4162 C   0  0  0  0  0  0  0  0  0  0  0  0
   -3.2401   -2.0889    1.1172 H   0  0  0  0  0  0  0  0  0  0  0  0
   -3.0671   -2.5859   -0.5858 H   0  0  0  0  0  0  0  0  0  0  0  0
   -1.2261   -2.1939    0.4202 C   0  0  0  0  0  0  0  0  0  0  0  0
   -0.3181   -2.9519    0.7312 O   0  0  0  0  0  0  0  0  0  0  0  0
   -1.0281   -0.9259    0.0662 N   0  0  0  0  0  0  0  0  0  0  0  0
   -1.8301   -0.3519   -0.1548 H   0  0  0  0  0  0  0  0  0  0  0  0
    0.2709   -0.2409    0.0912 C   0  0  1  0  0  0  0  0  0  0  0  0
    0.9659   -0.7829   -0.5505 H   0  0  0  0  0  0  0  0  0  0  0  0
    0.1223    1.1810   -0.4656 C   0  0  0  0  0  0  0  0  0  0  0  0
    1.1088    1.6418   -0.5379 H   0  0  0  0  0  0  0  0  0  0  0  0
   -0.3202    1.1379   -1.4625 H   0  0  0  0  0  0  0  0  0  0  0  0
   -0.6890    1.9729    0.3816 O   0  0  0  0  0  0  0  0  0  0  0  0
   -0.6160    2.8905    0.0974 H   0  0  0  0  0  0  0  0  0  0  0  0
    0.8483   -0.2295    1.5163 C   0  0  0  0  0  0  0  0  0  0  0  0
    0.2280   -0.7626    2.4370 O   0  0  0  0  0  0  0  0  0  0  0  0
    2.0335    0.3619    1.7012 N   0  0  0  0  0  0  0  0  0  0  0  0
    2.4227    0.8522    0.9068 H   0  0  0  0  0  0  0  0  0  0  0  0
    2.7318    0.4433    2.9826 C   0  0  0  0  0  0  0  0  0  0  0  0
    2.7078   -0.5291    3.4792 H   0  0  0  0  0  0  0  0  0  0  0  0
    3.7690    0.7417    2.8276 H   0  0  0  0  0  0  0  0  0  0  0  0
    2.2365    1.1753    3.6239 H   0  0  0  0  0  0  0  0  0  0  0  0
  5  6  2  0  0  0  0
  5  7  1  0  0  0  0
  2  3  1  0  0  0  0
  2  4  1  0  0  0  0
  2  5  1  0  0  0  0
  1  2  1  0  0  0  0
 16 17  2  0  0  0  0
 16 18  1  0  0  0  0
 14 15  1  0  0  0  0
 11 12  1  0  0  0  0
 11 13  1  0  0  0  0
 11 14  1  0  0  0  0
  9 10  1  0  0  0  0
  9 11  1  0  0  0  0
  9 16  1  0  0  0  0
  7  8  1  0  0  0  0
  7  9  1  0  0  0  0
 20 21  1  0  0  0  0
 20 22  1  0  0  0  0
 20 23  1  0  0  0  0
 18 19  1  0  0  0  0
 18 20  1  0  0  0  0
M  END
$$$$
default_name
  -OEChem-01062215323D

 23 22  0     1  0  0  0  0  0999 V2000
   -2.6721   -3.7279    0.7212 H   0  0  0  0  0  0  0  0  0  0  0  0
   -2.6561   -2.6819    0.4162 C   0  0  0  0  0  0  0  0  0  0  0  0
   -3.2401   -2.0889    1.1172 H   0  0  0  0  0  0  0  0  0  0  0  0
   -3.0671   -2.5859   -0.5858 H   0  0  0  0  0  0  0  0  0  0  0  0
   -1.2261   -2.1939    0.4202 C   0  0  0  0  0  0  0  0  0  0  0  0
   -0.3181   -2.9519    0.7312 O   0  0  0  0  0  0  0  0  0  0  0  0
   -1.0281   -0.9259    0.0662 N   0  0  0  0  0  0  0  0  0  0  0  0
   -1.8301   -0.3519   -0.1548 H   0  0  0  0  0  0  0  0  0  0  0  0
    0.2709   -0.2409    0.0912 C   0  0  1  0  0  0  0  0  0  0  0  0
    0.9659   -0.7829   -0.5505 H   0  0  0  0  0  0  0  0  0  0  0  0
    0.1223    1.1810   -0.4656 C   0  0  0  0  0  0  0  0  0  0  0  0
    1.1088    1.6418   -0.5379 H   0  0  0  0  0  0  0  0  0  0  0  0
   -0.3202    1.1379   -1.4625 H   0  0  0  0  0  0  0  0  0  0  0  0
   -0.6890    1.9729    0.3816 O   0  0  0  0  0  0  0  0  0  0  0  0
   -0.6160    2.8905    0.0974 H   0  0  0  0  0  0  0  0  0  0  0  0
    0.8483   -0.2295    1.5163 C   0  0  0  0  0  0  0  0  0  0  0  0
    0.3867   -0.9826    2.3745 O   0  0  0  0  0  0  0  0  0  0  0  0
    1.8596    0.6082    1.7697 N   0  0  0  0  0  0  0  0  0  0  0  0
    2.1089    1.2523    1.0308 H   0  0  0  0  0  0  0  0  0  0  0  0
    2.5355    0.7301    3.0598 C   0  0  0  0  0  0  0  0  0  0  0  0
    2.7522   -0.2630    3.4591 H   0  0  0  0  0  0  0  0  0  0  0  0
    3.4687    1.2823    2.9449 H   0  0  0  0  0  0  0  0  0  0  0  0
    1.8880    1.2562    3.7644 H   0  0  0  0  0  0  0  0  0  0  0  0
  5  6  2  0  0  0  0
  5  7  1  0  0  0  0
  2  3  1  0  0  0  0
  2  4  1  0  0  0  0
  2  5  1  0  0  0  0
  1  2  1  0  0  0  0
 16 17  2  0  0  0  0
 16 18  1  0  0  0  0
 14 15  1  0  0  0  0
 11 12  1  0  0  0  0
 11 13  1  0  0  0  0
 11 14  1  0  0  0  0
  9 10  1  0  0  0  0
  9 11  1  0  0  0  0
  9 16  1  0  0  0  0
  7  8  1  0  0  0  0
  7  9  1  0  0  0  0
 20 21  1  0  0  0  0
 20 22  1  0  0  0  0
 20 23  1  0  0  0  0
 18 19  1  0  0  0  0
 18 20  1  0  0  0  0
M  END
$$$$
default_name
  -OEChem-01062215323D

 23 22  0     1  0  0  0  0  0999 V2000
   -2.6721   -3.7279    0.7212 H   0  0  0  0  0  0  0  0  0  0  0  0
   -2.6561   -2.6819    0.4162 C   0  0  0  0  0  0  0  0  0  0  0  0
   -3.2401   -2.0889    1.1172 H   0  0  0  0  0  0  0  0  0  0  0  0
   -3.0671   -2.5859   -0.5858 H   0  0  0  0  0  0  0  0  0  0  0  0
   -1.2261   -2.1939    0.4202 C   0  0  0  0  0  0  0  0  0  0  0  0
   -0.3181   -2.9519    0.7312 O   0  0  0  0  0  0  0  0  0  0  0  0
   -1.0281   -0.9259    0.0662 N   0  0  0  0  0  0  0  0  0  0  0  0
   -1.8301   -0.3519   -0.1548 H   0  0  0  0  0  0  0  0  0  0  0  0
    0.2709   -0.2409    0.0912 C   0  0  1  0  0  0  0  0  0  0  0  0
    0.9659   -0.7829   -0.5505 H   0  0  0  0  0  0  0  0  0  0  0  0
    0.1223    1.1810   -0.4656 C   0  0  0  0  0  0  0  0  0  0  0  0
    1.1088    1.6418   -0.5379 H   0  0  0  0  0  0  0  0  0  0  0  0
   -0.3202    1.1379   -1.4625 H   0  0  0  0  0  0  0  0  0  0  0  0
   -0.6890    1.9729    0.3816 O   0  0  0  0  0  0  0  0  0  0  0  0
   -0.6160    2.8905    0.0974 H   0  0  0  0  0  0  0  0  0  0  0  0
    0.8483   -0.2295    1.5163 C   0  0  0  0  0  0  0  0  0  0  0  0
    0.5926   -1.1509    2.2924 O   0  0  0  0  0  0  0  0  0  0  0  0
    1.6326    0.7978    1.8601 N   0  0  0  0  0  0  0  0  0  0  0  0
    1.7100    1.5513    1.1900 H   0  0  0  0  0  0  0  0  0  0  0  0
    2.2773    0.9527    3.1627 C   0  0  0  0  0  0  0  0  0  0  0  0
    2.7313    0.0066    3.4654 H   0  0  0  0  0  0  0  0  0  0  0  0
    3.0492    1.7211    3.1114 H   0  0  0  0  0  0  0  0  0  0  0  0
    1.5324    1.2371    3.9087 H   0  0  0  0  0  0  0  0  0  0  0  0
  5  6  2  0  0  0  0
  5  7  1  0  0  0  0
  2  3  1  0  0  0  0
  2  4  1  0  0  0  0
  2  5  1  0  0  0  0
  1  2  1  0  0  0  0
 16 17  2  0  0  0  0
 16 18  1  0  0  0  0
 14 15  1  0  0  0  0
 11 12  1  0  0  0  0
 11 13  1  0  0  0  0
 11 14  1  0  0  0  0
  9 10  1  0  0  0  0
  9 11  1  0  0  0  0
  9 16  1  0  0  0  0
  7  8  1  0  0  0  0
  7  9  1  0  0  0  0
 20 21  1  0  0  0  0
 20 22  1  0  0  0  0
 20 23  1  0  0  0  0
 18 19  1  0  0  0  0
 18 20  1  0  0  0  0
M  END
$$$$
default_name
  -OEChem-01062215323D

 23 22  0     1  0  0  0  0  0999 V2000
   -2.6721   -3.7279    0.7212 H   0  0  0  0  0  0  0  0  0  0  0  0
   -2.6561   -2.6819    0.4162 C   0  0  0  0  0  0  0  0  0  0  0  0
   -3.2401   -2.0889    1.1172 H   0  0  0  0  0  0  0  0  0  0  0  0
   -3.0671   -2.5859   -0.5858 H   0  0  0  0  0  0  0  0  0  0  0  0
   -1.2261   -2.1939    0.4202 C   0  0  0  0  0  0  0  0  0  0  0  0
   -0.3181   -2.9519    0.7312 O   0  0  0  0  0  0  0  0  0  0  0  0
   -1.0281   -0.9259    0.0662 N   0  0  0  0  0  0  0  0  0  0  0  0
   -1.8301   -0.3519   -0.1548 H   0  0  0  0  0  0  0  0  0  0  0  0
    0.2709   -0.2409    0.0912 C   0  0  1  0  0  0  0  0  0  0  0  0
    0.9659   -0.7829   -0.5505 H   0  0  0  0  0  0  0  0  0  0  0  0
    0.1223    1.1810   -0.4656 C   0  0  0  0  0  0  0  0  0  0  0  0
    1.1088    1.6418   -0.5379 H   0  0  0  0  0  0  0  0  0  0  0  0
   -0.3202    1.1379   -1.4625 H   0  0  0  0  0  0  0  0  0  0  0  0
   -0.6890    1.9729    0.3816 O   0  0  0  0  0  0  0  0  0  0  0  0
   -0.6160    2.8905    0.0974 H   0  0  0  0  0  0  0  0  0  0  0  0
    0.8483   -0.2295    1.5163 C   0  0  0  0  0  0  0  0  0  0  0  0
    0.8317   -1.2562    2.1964 O   0  0  0  0  0  0  0  0  0  0  0  0
    1.3681    0.9176    1.9664 N   0  0  0  0  0  0  0  0  0  0  0  0
    1.2533    1.7291    1.3737 H   0  0  0  0  0  0  0  0  0  0  0  0
    1.9747    1.0956    3.2842 C   0  0  0  0  0  0  0  0  0  0  0  0
    2.6464    0.2615    3.4978 H   0  0  0  0  0  0  0  0  0  0  0  0
    2.5391    2.0281    3.3156 H   0  0  0  0  0  0  0  0  0  0  0  0
    1.1936    1.1193    4.0469 H   0  0  0  0  0  0  0  0  0  0  0  0
  5  6  2  0  0  0  0
  5  7  1  0  0  0  0
  2  3  1  0  0  0  0
  2  4  1  0  0  0  0
  2  5  1  0  0  0  0
  1  2  1  0  0  0  0
 16 17  2  0  0  0  0
 16 18  1  0  0  0  0
 14 15  1  0  0  0  0
 11 12  1  0  0  0  0
 11 13  1  0  0  0  0
 11 14  1  0  0  0  0
  9 10  1  0  0  0  0
  9 11  1  0  0  0  0
  9 16  1  0  0  0  0
  7  8  1  0  0  0  0
  7  9  1  0  0  0  0
 20 21  1  0  0  0  0
 20 22  1  0  0  0  0
 20 23  1  0  0  0  0
 18 19  1  0  0  0  0
 18 20  1  0  0  0  0
M  END
$$$$
default_name
  -OEChem-01062215323D

 23 22  0     1  0  0  0  0  0999 V2000
   -2.6721   -3.7279    0.7212 H   0  0  0  0  0  0  0  0  0  0  0  0
   -2.6561   -2.6819    0.4162 C   0  0  0  0  0  0  0  0  0  0  0  0
   -3.2401   -2.0889    1.1172 H   0  0  0  0  0  0  0  0  0  0  0  0
   -3.0671   -2.5859   -0.5858 H   0  0  0  0  0  0  0  0  0  0  0  0
   -1.2261   -2.1939    0.4202 C   0  0  0  0  0  0  0  0  0  0  0  0
   -0.3181   -2.9519    0.7312 O   0  0  0  0  0  0  0  0  0  0  0  0
   -1.0281   -0.9259    0.0662 N   0  0  0  0  0  0  0  0  0  0  0  0
   -1.8301   -0.3519   -0.1548 H   0  0  0  0  0  0  0  0  0  0  0  0
    0.2709   -0.2409    0.0912 C   0  0  1  0  0  0  0  0  0  0  0  0
    0.9659   -0.7829   -0.5505 H   0  0  0  0  0  0  0  0  0  0  0  0
    0.1223    1.1810   -0.4656 C   0  0  0  0  0  0  0  0  0  0  0  0
    1.1088    1.6418   -0.5379 H   0  0  0  0  0  0  0  0  0  0  0  0
   -0.3202    1.1379   -1.4625 H   0  0  0  0  0  0  0  0  0  0  0  0
   -0.6890    1.9729    0.3816 O   0  0  0  0  0  0  0  0  0  0  0  0
   -0.6160    2.8905    0.0974 H   0  0  0  0  0  0  0  0  0  0  0  0
    0.8483   -0.2295    1.5163 C   0  0  0  0  0  0  0  0  0  0  0  0
    1.0877   -1.2911    2.0929 O   0  0  0  0  0  0  0  0  0  0  0  0
    1.0840    0.9596    2.0811 N   0  0  0  0  0  0  0  0  0  0  0  0
    0.7699    1.7733    1.5692 H   0  0  0  0  0  0  0  0  0  0  0  0
    1.6484    1.1494    3.4160 C   0  0  0  0  0  0  0  0  0  0  0  0
    2.5034    0.4841    3.5539 H   0  0  0  0  0  0  0  0  0  0  0  0
    1.9731    2.1824    3.5438 H   0  0  0  0  0  0  0  0  0  0  0  0
    0.8950    0.9108    4.1695 H   0  0  0  0  0  0  0  0  0  0  0  0
  5  6  2  0  0  0  0
  5  7  1  0  0  0  0
  2  3  1  0  0  0  0
  2  4  1  0  0  0  0
  2  5  1  0  0  0  0
  1  2  1  0  0  0  0
 16 17  2  0  0  0  0
 16 18  1  0  0  0  0
 14 15  1  0  0  0  0
 11 12  1  0  0  0  0
 11 13  1  0  0  0  0
 11 14  1  0  0  0  0
  9 10  1  0  0  0  0
  9 11  1  0  0  0  0
  9 16  1  0  0  0  0
  7  8  1  0  0  0  0
  7  9  1  0  0  0  0
 20 21  1  0  0  0  0
 20 22  1  0  0  0  0
 20 23  1  0  0  0  0
 18 19  1  0  0  0  0
 18 20  1  0  0  0  0
M  END
$$$$
default_name
  -OEChem-01062215323D

 23 22  0     1  0  0  0  0  0999 V2000
   -2.6721   -3.7279    0.7212 H   0  0  0  0  0  0  0  0  0  0  0  0
   -2.6561   -2.6819    0.4162 C   0  0  0  0  0  0  0  0  0  0  0  0
   -3.2401   -2.0889    1.1172 H   0  0  0  0  0  0  0  0  0  0  0  0
   -3.0671   -2.5859   -0.5858 H   0  0  0  0  0  0  0  0  0  0  0  0
   -1.2261   -2.1939    0.4202 C   0  0  0  0  0  0  0  0  0  0  0  0
   -0.3181   -2.9519    0.7312 O   0  0  0  0  0  0  0  0  0  0  0  0
   -1.0281   -0.9259    0.0662 N   0  0  0  0  0  0  0  0  0  0  0  0
   -1.8301   -0.3519   -0.1548 H   0  0  0  0  0  0  0  0  0  0  0  0
    0.2709   -0.2409    0.0912 C   0  0  1  0  0  0  0  0  0  0  0  0
    0.9659   -0.7829   -0.5505 H   0  0  0  0  0  0  0  0  0  0  0  0
    0.1223    1.1810   -0.4656 C   0  0  0  0  0  0  0  0  0  0  0  0
    1.1088    1.6418   -0.5379 H   0  0  0  0  0  0  0  0  0  0  0  0
   -0.3202    1.1379   -1.4625 H   0  0  0  0  0  0  0  0  0  0  0  0
   -0.6890    1.9729    0.3816 O   0  0  0  0  0  0  0  0  0  0  0  0
   -0.6160    2.8905    0.0974 H   0  0  0  0  0  0  0  0  0  0  0  0
    0.8483   -0.2295    1.5163 C   0  0  0  0  0  0  0  0  0  0  0  0
    1.3432   -1.2534    1.9891 O   0  0  0  0  0  0  0  0  0  0  0  0
    0.7998    0.9209    2.1966 N   0  0  0  0  0  0  0  0  0  0  0  0
    0.2927    1.6811    1.7633 H   0  0  0  0  0  0  0  0  0  0  0  0
    1.3205    1.1102    3.5491 C   0  0  0  0  0  0  0  0  0  0  0  0
    2.3119    0.6594    3.6301 H   0  0  0  0  0  0  0  0  0  0  0  0
    1.3898    2.1736    3.7802 H   0  0  0  0  0  0  0  0  0  0  0  0
    0.6568    0.6259    4.2684 H   0  0  0  0  0  0  0  0  0  0  0  0
  5  6  2  0  0  0  0
  5  7  1  0  0  0  0
  2  3  1  0  0  0  0
  2  4  1  0  0  0  0
  2  5  1  0  0  0  0
  1  2  1  0  0  0  0
 16 17  2  0  0  0  0
 16 18  1  0  0  0  0
 14 15  1  0  0  0  0
 11 12  1  0  0  0  0
 11 13  1  0  0  0  0
 11 14  1  0  0  0  0
  9 10  1  0  0  0  0
  9 11  1  0  0  0  0
  9 16  1  0  0  0  0
  7  8  1  0  0  0  0
  7  9  1  0  0  0  0
 20 21  1  0  0  0  0
 20 22  1  0  0  0  0
 20 23  1  0  0  0  0
 18 19  1  0  0  0  0
 18 20  1  0  0  0  0
M  END
$$$$
default_name
  -OEChem-01062215323D

 23 22  0     1  0  0  0  0  0999 V2000
   -2.6721   -3.7279    0.7212 H   0  0  0  0  0  0  0  0  0  0  0  0
   -2.6561   -2.6819    0.4162 C   0  0  0  0  0  0  0  0  0  0  0  0
   -3.2401   -2.0889    1.1172 H   0  0  0  0  0  0  0  0  0  0  0  0
   -3.0671   -2.5859   -0.5858 H   0  0  0  0  0  0  0  0  0  0  0  0
   -1.2261   -2.1939    0.4202 C   0  0  0  0  0  0  0  0  0  0  0  0
   -0.3181   -2.9519    0.7312 O   0  0  0  0  0  0  0  0  0  0  0  0
   -1.0281   -0.9259    0.0662 N   0  0  0  0  0  0  0  0  0  0  0  0
   -1.8301   -0.3519   -0.1548 H   0  0  0  0  0  0  0  0  0  0  0  0
    0.2709   -0.2409    0.0912 C   0  0  1  0  0  0  0  0  0  0  0  0
    0.9659   -0.7829   -0.5505 H   0  0  0  0  0  0  0  0  0  0  0  0
    0.1223    1.1810   -0.4656 C   0  0  0  0  0  0  0  0  0  0  0  0
    1.1088    1.6418   -0.5379 H   0  0  0  0  0  0  0  0  0  0  0  0
   -0.3202    1.1379   -1.4625 H   0  0  0  0  0  0  0  0  0  0  0  0
   -0.6890    1.9729    0.3816 O   0  0  0  0  0  0  0  0  0  0  0  0
   -0.6160    2.8905    0.0974 H   0  0  0  0  0  0  0  0  0  0  0  0
    0.8483   -0.2295    1.5163 C   0  0  0  0  0  0  0  0  0  0  0  0
    1.5807   -1.1456    1.8920 O   0  0  0  0  0  0  0  0  0  0  0  0
    0.5347    0.8041    2.3050 N   0  0  0  0  0  0  0  0  0  0  0  0
   -0.1458    1.4587    1.9427 H   0  0  0  0  0  0  0  0  0  0  0  0
    1.0135    0.9807    3.6746 C   0  0  0  0  0  0  0  0  0  0  0  0
    2.0851    0.7753    3.7211 H   0  0  0  0  0  0  0  0  0  0  0  0
    0.8289    2.0021    4.0088 H   0  0  0  0  0  0  0  0  0  0  0  0
    0.4952    0.2840    4.3366 H   0  0  0  0  0  0  0  0  0  0  0  0
  5  6  2  0  0  0  0
  5  7  1  0  0  0  0
  2  3  1  0  0  0  0
  2  4  1  0  0  0  0
  2  5  1  0  0  0  0
  1  2  1  0  0  0  0
 16 17  2  0  0  0  0
 16 18  1  0  0  0  0
 14 15  1  0  0  0  0
 11 12  1  0  0  0  0
 11 13  1  0  0  0  0
 11 14  1  0  0  0  0
  9 10  1  0  0  0  0
  9 11  1  0  0  0  0
  9 16  1  0  0  0  0
  7  8  1  0  0  0  0
  7  9  1  0  0  0  0
 20 21  1  0  0  0  0
 20 22  1  0  0  0  0
 20 23  1  0  0  0  0
 18 19  1  0  0  0  0
 18 20  1  0  0  0  0
M  END
$$$$
default_name
  -OEChem-01062215323D

 23 22  0     1  0  0  0  0  0999 V2000
   -2.6721   -3.7279    0.7212 H   0  0  0  0  0  0  0  0  0  0  0  0
   -2.6561   -2.6819    0.4162 C   0  0  0  0  0  0  0  0  0  0  0  0
   -3.2401   -2.0889    1.1172 H   0  0  0  0  0  0  0  0  0  0  0  0
   -3.0671   -2.5859   -0.5858 H   0  0  0  0  0  0  0  0  0  0  0  0
   -1.2261   -2.1939    0.4202 C   0  0  0  0  0  0  0  0  0  0  0  0
   -0.3181   -2.9519    0.7312 O   0  0  0  0  0  0  0  0  0  0  0  0
   -1.0281   -0.9259    0.0662 N   0  0  0  0  0  0  0  0  0  0  0  0
   -1.8301   -0.3519   -0.1548 H   0  0  0  0  0  0  0  0  0  0  0  0
    0.2709   -0.2409    0.0912 C   0  0  1  0  0  0  0  0  0  0  0  0
    0.9659   -0.7829   -0.5505 H   0  0  0  0  0  0  0  0  0  0  0  0
    0.1223    1.1810   -0.4656 C   0  0  0  0  0  0  0  0  0  0  0  0
    1.1088    1.6418   -0.5379 H   0  0  0  0  0  0  0  0  0  0  0  0
   -0.3202    1.1379   -1.4625 H   0  0  0  0  0  0  0  0  0  0  0  0
   -0.6890    1.9729    0.3816 O   0  0  0  0  0  0  0  0  0  0  0  0
   -0.6160    2.8905    0.0974 H   0  0  0  0  0  0  0  0  0  0  0  0
    0.8483   -0.2295    1.5163 C   0  0  0  0  0  0  0  0  0  0  0  0
    1.7841   -0.9750    1.8082 O   0  0  0  0  0  0  0  0  0  0  0  0
    0.3070    0.6172    2.3987 N   0  0  0  0  0  0  0  0  0  0  0  0
   -0.5156    1.1213    2.0953 H   0  0  0  0  0  0  0  0  0  0  0  0
    0.7482    0.7699    3.7837 C   0  0  0  0  0  0  0  0  0  0  0  0
    1.8383    0.8241    3.8207 H   0  0  0  0  0  0  0  0  0  0  0  0
    0.3287    1.6797    4.2140 H   0  0  0  0  0  0  0  0  0  0  0  0
    0.4212   -0.0917    4.3695 H   0  0  0  0  0  0  0  0  0  0  0  0
  5  6  2  0  0  0  0
  5  7  1  0  0  0  0
  2  3  1  0  0  0  0
  2  4  1  0  0  0  0
  2  5  1  0  0  0  0
  1  2  1  0  0  0  0
 16 17  2  0  0  0  0
 16 18  1  0  0  0  0
 14 15  1  0  0  0  0
 11 12  1  0  0  0  0
 11 13  1  0  0  0  0
 11 14  1  0  0  0  0
  9 10  1  0  0  0  0
  9 11  1  0  0  0  0
  9 16  1  0  0  0  0
  7  8  1  0  0  0  0
  7  9  1  0  0  0  0
 20 21  1  0  0  0  0
 20 22  1  0  0  0  0
 20 23  1  0  0  0  0
 18 19  1  0  0  0  0
 18 20  1  0  0  0  0
M  END
$$$$
default_name
  -OEChem-01062215323D

 23 22  0     1  0  0  0  0  0999 V2000
   -2.6721   -3.7279    0.7212 H   0  0  0  0  0  0  0  0  0  0  0  0
   -2.6561   -2.6819    0.4162 C   0  0  0  0  0  0  0  0  0  0  0  0
   -3.2401   -2.0889    1.1172 H   0  0  0  0  0  0  0  0  0  0  0  0
   -3.0671   -2.5859   -0.5858 H   0  0  0  0  0  0  0  0  0  0  0  0
   -1.2261   -2.1939    0.4202 C   0  0  0  0  0  0  0  0  0  0  0  0
   -0.3181   -2.9519    0.7312 O   0  0  0  0  0  0  0  0  0  0  0  0
   -1.0281   -0.9259    0.0662 N   0  0  0  0  0  0  0  0  0  0  0  0
   -1.8301   -0.3519   -0.1548 H   0  0  0  0  0  0  0  0  0  0  0  0
    0.2709   -0.2409    0.0912 C   0  0  1  0  0  0  0  0  0  0  0  0
    0.9659   -0.7829   -0.5505 H   0  0  0  0  0  0  0  0  0  0  0  0
    0.1223    1.1810   -0.4656 C   0  0  0  0  0  0  0  0  0  0  0  0
    1.1088    1.6418   -0.5379 H   0  0  0  0  0  0  0  0  0  0  0  0
   -0.3202    1.1379   -1.4625 H   0  0  0  0  0  0  0  0  0  0  0  0
   -0.6890    1.9729    0.3816 O   0  0  0  0  0  0  0  0  0  0  0  0
   -0.6160    2.8905    0.0974 H   0  0  0  0  0  0  0  0  0  0  0  0
    0.8483   -0.2295    1.5163 C   0  0  0  0  0  0  0  0  0  0  0  0
    1.9395   -0.7534    1.7435 O   0  0  0  0  0  0  0  0  0  0  0  0
    0.1319    0.3729    2.4716 N   0  0  0  0  0  0  0  0  0  0  0  0
   -0.7916    0.6919    2.2105 H   0  0  0  0  0  0  0  0  0  0  0  0
    0.5427    0.4919    3.8692 C   0  0  0  0  0  0  0  0  0  0  0  0
    1.5885    0.8023    3.9221 H   0  0  0  0  0  0  0  0  0  0  0  0
   -0.0767    1.2284    4.3819 H   0  0  0  0  0  0  0  0  0  0  0  0
    0.4400   -0.4756    4.3650 H   0  0  0  0  0  0  0  0  0  0  0  0
  5  6  2  0  0  0  0
  5  7  1  0  0  0  0
  2  3  1  0  0  0  0
  2  4  1  0  0  0  0
  2  5  1  0  0  0  0
  1  2  1  0  0  0  0
 16 17  2  0  0  0  0
 16 18  1  0  0  0  0
 14 15  1  0  0  0  0
 11 12  1  0  0  0  0
 11 13  1  0  0  0  0
 11 14  1  0  0  0  0
  9 10  1  0  0  0  0
  9 11  1  0  0  0  0
  9 16  1  0  0  0  0
  7  8  1  0  0  0  0
  7  9  1  0  0  0  0
 20 21  1  0  0  0  0
 20 22  1  0  0  0  0
 20 23  1  0  0  0  0
 18 19  1  0  0  0  0
 18 20  1  0  0  0  0
M  END
$$$$
default_name
  -OEChem-01062215323D

 23 22  0     1  0  0  0  0  0999 V2000
   -2.6721   -3.7279    0.7212 H   0  0  0  0  0  0  0  0  0  0  0  0
   -2.6561   -2.6819    0.4162 C   0  0  0  0  0  0  0  0  0  0  0  0
   -3.2401   -2.0889    1.1172 H   0  0  0  0  0  0  0  0  0  0  0  0
   -3.0671   -2.5859   -0.5858 H   0  0  0  0  0  0  0  0  0  0  0  0
   -1.2261   -2.1939    0.4202 C   0  0  0  0  0  0  0  0  0  0  0  0
   -0.3181   -2.9519    0.7312 O   0  0  0  0  0  0  0  0  0  0  0  0
   -1.0281   -0.9259    0.0662 N   0  0  0  0  0  0  0  0  0  0  0  0
   -1.8301   -0.3519   -0.1548 H   0  0  0  0  0  0  0  0  0  0  0  0
    0.2709   -0.2409    0.0912 C   0  0  1  0  0  0  0  0  0  0  0  0
    0.9659   -0.7829   -0.5505 H   0  0  0  0  0  0  0  0  0  0  0  0
    0.1223    1.1810   -0.4656 C   0  0  0  0  0  0  0  0  0  0  0  0
    1.1088    1.6418   -0.5379 H   0  0  0  0  0  0  0  0  0  0  0  0
   -0.3202    1.1379   -1.4625 H   0  0  0  0  0  0  0  0  0  0  0  0
   -0.6890    1.9729    0.3816 O   0  0  0  0  0  0  0  0  0  0  0  0
   -0.6160    2.8905    0.0974 H   0  0  0  0  0  0  0  0  0  0  0  0
    0.8483   -0.2295    1.5163 C   0  0  0  0  0  0  0  0  0  0  0  0
    2.0363   -0.4957    1.7022 O   0  0  0  0  0  0  0  0  0  0  0  0
    0.0217    0.0878    2.5186 N   0  0  0  0  0  0  0  0  0  0  0  0
   -0.9550    0.1996    2.2807 H   0  0  0  0  0  0  0  0  0  0  0  0
    0.4111    0.1659    3.9252 C   0  0  0  0  0  0  0  0  0  0  0  0
    1.3526    0.7115    4.0184 H   0  0  0  0  0  0  0  0  0  0  0  0
   -0.3597    0.6789    4.5010 H   0  0  0  0  0  0  0  0  0  0  0  0
    0.5502   -0.8414    4.3233 H   0  0  0  0  0  0  0  0  0  0  0  0
  5  6  2  0  0  0  0
  5  7  1  0  0  0  0
  2  3  1  0  0  0  0
  2  4  1  0  0  0  0
  2  5  1  0  0  0  0
  1  2  1  0  0  0  0
 16 17  2  0  0  0  0
 16 18  1  0  0  0  0
 14 15  1  0  0  0  0
 11 12  1  0  0  0  0
 11 13  1  0  0  0  0
 11 14  1  0  0  0  0
  9 10  1  0  0  0  0
  9 11  1  0  0  0  0
  9 16  1  0  0  0  0
  7  8  1  0  0  0  0
  7  9  1  0  0  0  0
 20 21  1  0  0  0  0
 20 22  1  0  0  0  0
 20 23  1  0  0  0  0
 18 19  1  0  0  0  0
 18 20  1  0  0  0  0
M  END
$$$$
default_name
  -OEChem-01062215323D

 23 22  0     1  0  0  0  0  0999 V2000
   -2.6721   -3.7279    0.7212 H   0  0  0  0  0  0  0  0  0  0  0  0
   -2.6561   -2.6819    0.4162 C   0  0  0  0  0  0  0  0  0  0  0  0
   -3.2401   -2.0889    1.1172 H   0  0  0  0  0  0  0  0  0  0  0  0
   -3.0671   -2.5859   -0.5858 H   0  0  0  0  0  0  0  0  0  0  0  0
   -1.2261   -2.1939    0.4202 C   0  0  0  0  0  0  0  0  0  0  0  0
   -0.3181   -2.9519    0.7312 O   0  0  0  0  0  0  0  0  0  0  0  0
   -1.0281   -0.9259    0.0662 N   0  0  0  0  0  0  0  0  0  0  0  0
   -1.8301   -0.3519   -0.1548 H   0  0  0  0  0  0  0  0  0  0  0  0
    0.2709   -0.2409    0.0912 C   0  0  1  0  0  0  0  0  0  0  0  0
    0.9659   -0.7829   -0.5505 H   0  0  0  0  0  0  0  0  0  0  0  0
    0.1223    1.1810   -0.4656 C   0  0  0  0  0  0  0  0  0  0  0  0
    1.1088    1.6418   -0.5379 H   0  0  0  0  0  0  0  0  0  0  0  0
   -0.3202    1.1379   -1.4625 H   0  0  0  0  0  0  0  0  0  0  0  0
   -0.6890    1.9729    0.3816 O   0  0  0  0  0  0  0  0  0  0  0  0
   -0.6160    2.8905    0.0974 H   0  0  0  0  0  0  0  0  0  0  0  0
    0.8483   -0.2295    1.5163 C   0  0  0  0  0  0  0  0  0  0  0  0
    2.0680   -0.2196    1.6872 O   0  0  0  0  0  0  0  0  0  0  0  0
   -0.0164   -0.2186    2.5365 N   0  0  0  0  0  0  0  0  0  0  0  0
   -0.9945   -0.3218    2.3009 H   0  0  0  0  0  0  0  0  0  0  0  0
    0.3623   -0.1860    3.9477 C   0  0  0  0  0  0  0  0  0  0  0  0
    1.1466    0.5578    4.1031 H   0  0  0  0  0  0  0  0  0  0  0  0
   -0.5010    0.0687    4.5631 H   0  0  0  0  0  0  0  0  0  0  0  0
    0.7443   -1.1642    4.2472 H   0  0  0  0  0  0  0  0  0  0  0  0
  5  6  2  0  0  0  0
  5  7  1  0  0  0  0
  2  3  1  0  0  0  0
  2  4  1  0  0  0  0
  2  5  1  0  0  0  0
  1  2  1  0  0  0  0
 16 17  2  0  0  0  0
 16 18  1  0  0  0  0
 14 15  1  0  0  0  0
 11 12  1  0  0  0  0
 11 13  1  0  0  0  0
 11 14  1  0  0  0  0
  9 10  1  0  0  0  0
  9 11  1  0  0  0  0
  9 16  1  0  0  0  0
  7  8  1  0  0  0  0
  7  9  1  0  0  0  0
 20 21  1  0  0  0  0
 20 22  1  0  0  0  0
 20 23  1  0  0  0  0
 18 19  1  0  0  0  0
 18 20  1  0  0  0  0
M  END
$$$$
default_name
  -OEChem-01062215323D

 23 22  0     1  0  0  0  0  0999 V2000
   -2.6721   -3.7279    0.7212 H   0  0  0  0  0  0  0  0  0  0  0  0
   -2.6561   -2.6819    0.4162 C   0  0  0  0  0  0  0  0  0  0  0  0
   -3.2401   -2.0889    1.1172 H   0  0  0  0  0  0  0  0  0  0  0  0
   -3.0671   -2.5859   -0.5858 H   0  0  0  0  0  0  0  0  0  0  0  0
   -1.2261   -2.1939    0.4202 C   0  0  0  0  0  0  0  0  0  0  0  0
   -0.3181   -2.9519    0.7312 O   0  0  0  0  0  0  0  0  0  0  0  0
   -1.0281   -0.9259    0.0662 N   0  0  0  0  0  0  0  0  0  0  0  0
   -1.8301   -0.3519   -0.1548 H   0  0  0  0  0  0  0  0  0  0  0  0
    0.2709   -0.2409    0.0912 C   0  0  1  0  0  0  0  0  0  0  0  0
    0.9659   -0.7829   -0.5505 H   0  0  0  0  0  0  0  0  0  0  0  0
    0.1223    1.1810   -0.4656 C   0  0  0  0  0  0  0  0  0  0  0  0
    1.1088    1.6418   -0.5379 H   0  0  0  0  0  0  0  0  0  0  0  0
   -0.3202    1.1379   -1.4625 H   0  0  0  0  0  0  0  0  0  0  0  0
   -0.6890    1.9729    0.3816 O   0  0  0  0  0  0  0  0  0  0  0  0
   -0.6160    2.8905    0.0974 H   0  0  0  0  0  0  0  0  0  0  0  0
    0.8483   -0.2295    1.5163 C   0  0  0  0  0  0  0  0  0  0  0  0
    2.0322    0.0562    1.6994 O   0  0  0  0  0  0  0  0  0  0  0  0
    0.0203   -0.5254    2.5240 N   0  0  0  0  0  0  0  0  0  0  0  0
   -0.9076   -0.8370    2.2698 H   0  0  0  0  0  0  0  0  0  0  0  0
    0.3996   -0.5399    3.9355 C   0  0  0  0  0  0  0  0  0  0  0  0
    0.9848    0.3518    4.1703 H   0  0  0  0  0  0  0  0  0  0  0  0
   -0.4911   -0.5607    4.5641 H   0  0  0  0  0  0  0  0  0  0  0  0
    1.0091   -1.4221    4.1419 H   0  0  0  0  0  0  0  0  0  0  0  0
  5  6  2  0  0  0  0
  5  7  1  0  0  0  0
  2  3  1  0  0  0  0
  2  4  1  0  0  0  0
  2  5  1  0  0  0  0
  1  2  1  0  0  0  0
 16 17  2  0  0  0  0
 16 18  1  0  0  0  0
 14 15  1  0  0  0  0
 11 12  1  0  0  0  0
 11 13  1  0  0  0  0
 11 14  1  0  0  0  0
  9 10  1  0  0  0  0
  9 11  1  0  0  0  0
  9 16  1  0  0  0  0
  7  8  1  0  0  0  0
  7  9  1  0  0  0  0
 20 21  1  0  0  0  0
 20 22  1  0  0  0  0
 20 23  1  0  0  0  0
 18 19  1  0  0  0  0
 18 20  1  0  0  0  0
M  END
$$$$
default_name
  -OEChem-01062215323D

 23 22  0     1  0  0  0  0  0999 V2000
   -2.6721   -3.7279    0.7212 H   0  0  0  0  0  0  0  0  0  0  0  0
   -2.6561   -2.6819    0.4162 C   0  0  0  0  0  0  0  0  0  0  0  0
   -3.2401   -2.0889    1.1172 H   0  0  0  0  0  0  0  0  0  0  0  0
   -3.0671   -2.5859   -0.5858 H   0  0  0  0  0  0  0  0  0  0  0  0
   -1.2261   -2.1939    0.4202 C   0  0  0  0  0  0  0  0  0  0  0  0
   -0.3181   -2.9519    0.7312 O   0  0  0  0  0  0  0  0  0  0  0  0
   -1.0281   -0.9259    0.0662 N   0  0  0  0  0  0  0  0  0  0  0  0
   -1.8301   -0.3519   -0.1548 H   0  0  0  0  0  0  0  0  0  0  0  0
    0.2709   -0.2409    0.0912 C   0  0  1  0  0  0  0  0  0  0  0  0
    0.9659   -0.7829   -0.5505 H   0  0  0  0  0  0  0  0  0  0  0  0
    0.1223    1.1810   -0.4656 C   0  0  0  0  0  0  0  0  0  0  0  0
    1.1088    1.6418   -0.5379 H   0  0  0  0  0  0  0  0  0  0  0  0
   -0.3202    1.1379   -1.4625 H   0  0  0  0  0  0  0  0  0  0  0  0
   -0.6890    1.9729    0.3816 O   0  0  0  0  0  0  0  0  0  0  0  0
   -0.6160    2.8905    0.0974 H   0  0  0  0  0  0  0  0  0  0  0  0
    0.8483   -0.2295    1.5163 C   0  0  0  0  0  0  0  0  0  0  0  0
    1.9316    0.3128    1.7381 O   0  0  0  0  0  0  0  0  0  0  0  0
    0.1294   -0.8117    2.4821 N   0  0  0  0  0  0  0  0  0  0  0  0
   -0.7002   -1.3107    2.1895 H   0  0  0  0  0  0  0  0  0  0  0  0
    0.5205   -0.8716    3.8891 C   0  0  0  0  0  0  0  0  0  0  0  0
    0.8780    0.1074    4.2156 H   0  0  0  0  0  0  0  0  0  0  0  0
   -0.3305   -1.1663    4.5039 H   0  0  0  0  0  0  0  0  0  0  0  0
    1.3265   -1.5975    4.0147 H   0  0  0  0  0  0  0  0  0  0  0  0
  5  6  2  0  0  0  0
  5  7  1  0  0  0  0
  2  3  1  0  0  0  0
  2  4  1  0  0  0  0
  2  5  1  0  0  0  0
  1  2  1  0  0  0  0
 16 17  2  0  0  0  0
 16 18  1  0  0  0  0
 14 15  1  0  0  0  0
 11 12  1  0  0  0  0
 11 13  1  0  0  0  0
 11 14  1  0  0  0  0
  9 10  1  0  0  0  0
  9 11  1  0  0  0  0
  9 16  1  0  0  0  0
  7  8  1  0  0  0  0
  7  9  1  0  0  0  0
 20 21  1  0  0  0  0
 20 22  1  0  0  0  0
 20 23  1  0  0  0  0
 18 19  1  0  0  0  0
 18 20  1  0  0  0  0
M  END
$$$$
default_name
  -OEChem-01062215323D

 23 22  0     1  0  0  0  0  0999 V2000
   -2.6721   -3.7279    0.7212 H   0  0  0  0  0  0  0  0  0  0  0  0
   -2.6561   -2.6819    0.4162 C   0  0  0  0  0  0  0  0  0  0  0  0
   -3.2401   -2.0889    1.1172 H   0  0  0  0  0  0  0  0  0  0  0  0
   -3.0671   -2.5859   -0.5858 H   0  0  0  0  0  0  0  0  0  0  0  0
   -1.2261   -2.1939    0.4202 C   0  0  0  0  0  0  0  0  0  0  0  0
   -0.3181   -2.9519    0.7312 O   0  0  0  0  0  0  0  0  0  0  0  0
   -1.0281   -0.9259    0.0662 N   0  0  0  0  0  0  0  0  0  0  0  0
   -1.8301   -0.3519   -0.1548 H   0  0  0  0  0  0  0  0  0  0  0  0
    0.2709   -0.2409    0.0912 C   0  0  1  0  0  0  0  0  0  0  0  0
    0.9659   -0.7829   -0.5505 H   0  0  0  0  0  0  0  0  0  0  0  0
    0.1223    1.1810   -0.4656 C   0  0  0  0  0  0  0  0  0  0  0  0
    1.1088    1.6418   -0.5379 H   0  0  0  0  0  0  0  0  0  0  0  0
   -0.3202    1.1379   -1.4625 H   0  0  0  0  0  0  0  0  0  0  0  0
   -0.6890    1.9729    0.3816 O   0  0  0  0  0  0  0  0  0  0  0  0
   -0.6160    2.8905    0.0974 H   0  0  0  0  0  0  0  0  0  0  0  0
    0.8483   -0.2295    1.5163 C   0  0  0  0  0  0  0  0  0  0  0  0
    1.7729    0.5328    1.8007 O   0  0  0  0  0  0  0  0  0  0  0  0
    0.3033   -1.0580    2.4136 N   0  0  0  0  0  0  0  0  0  0  0  0
   -0.3864   -1.7107    2.0655 H   0  0  0  0  0  0  0  0  0  0  0  0
    0.7167   -1.1584    3.8119 C   0  0  0  0  0  0  0  0  0  0  0  0
    0.8335   -0.1587    4.2357 H   0  0  0  0  0  0  0  0  0  0  0  0
   -0.0302   -1.7069    4.3865 H   0  0  0  0  0  0  0  0  0  0  0  0
    1.6750   -1.6784    3.8742 H   0  0  0  0  0  0  0  0  0  0  0  0
  5  6  2  0  0  0  0
  5  7  1  0  0  0  0
  2  3  1  0  0  0  0
  2  4  1  0  0  0  0
  2  5  1  0  0  0  0
  1  2  1  0  0  0  0
 16 17  2  0  0  0  0
 16 18  1  0  0  0  0
 14 15  1  0  0  0  0
 11 12  1  0  0  0  0
 11 13  1  0  0  0  0
 11 14  1  0  0  0  0
  9 10  1  0  0  0  0
  9 11  1  0  0  0  0
  9 16  1  0  0  0  0
  7  8  1  0  0  0  0
  7  9  1  0  0  0  0
 20 21  1  0  0  0  0
 20 22  1  0  0  0  0
 20 23  1  0  0  0  0
 18 19  1  0  0  0  0
 18 20  1  0  0  0  0
M  END
$$$$
default_name
  -OEChem-01062215323D

 23 22  0     1  0  0  0  0  0999 V2000
   -2.6721   -3.7279    0.7212 H   0  0  0  0  0  0  0  0  0  0  0  0
   -2.6561   -2.6819    0.4162 C   0  0  0  0  0  0  0  0  0  0  0  0
   -3.2401   -2.0889    1.1172 H   0  0  0  0  0  0  0  0  0  0  0  0
   -3.0671   -2.5859   -0.5858 H   0  0  0  0  0  0  0  0  0  0  0  0
   -1.2261   -2.1939    0.4202 C   0  0  0  0  0  0  0  0  0  0  0  0
   -0.3181   -2.9519    0.7312 O   0  0  0  0  0  0  0  0  0  0  0  0
   -1.0281   -0.9259    0.0662 N   0  0  0  0  0  0  0  0  0  0  0  0
   -1.8301   -0.3519   -0.1548 H   0  0  0  0  0  0  0  0  0  0  0  0
    0.2709   -0.2409    0.0912 C   0  0  1  0  0  0  0  0  0  0  0  0
    0.9659   -0.7829   -0.5505 H   0  0  0  0  0  0  0  0  0  0  0  0
    0.1223    1.1810   -0.4656 C   0  0  0  0  0  0  0  0  0  0  0  0
    1.1088    1.6418   -0.5379 H   0  0  0  0  0  0  0  0  0  0  0  0
   -0.3202    1.1379   -1.4625 H   0  0  0  0  0  0  0  0  0  0  0  0
   -0.6890    1.9729    0.3816 O   0  0  0  0  0  0  0  0  0  0  0  0
   -0.6160    2.8905    0.0974 H   0  0  0  0  0  0  0  0  0  0  0  0
    0.8483   -0.2295    1.5163 C   0  0  0  0  0  0  0  0  0  0  0  0
    1.5670    0.7011    1.8828 O   0  0  0  0  0  0  0  0  0  0  0  0
    0.5303   -1.2476    2.3231 N   0  0  0  0  0  0  0  0  0  0  0  0
    0.0125   -2.0098    1.9063 H   0  0  0  0  0  0  0  0  0  0  0  0
    0.9749   -1.3809    3.7091 C   0  0  0  0  0  0  0  0  0  0  0  0
    0.8545   -0.4284    4.2294 H   0  0  0  0  0  0  0  0  0  0  0  0
    0.3893   -2.1457    4.2201 H   0  0  0  0  0  0  0  0  0  0  0  0
    2.0306   -1.6593    3.7299 H   0  0  0  0  0  0  0  0  0  0  0  0
  5  6  2  0  0  0  0
  5  7  1  0  0  0  0
  2  3  1  0  0  0  0
  2  4  1  0  0  0  0
  2  5  1  0  0  0  0
  1  2  1  0  0  0  0
 16 17  2  0  0  0  0
 16 18  1  0  0  0  0
 14 15  1  0  0  0  0
 11 12  1  0  0  0  0
 11 13  1  0  0  0  0
 11 14  1  0  0  0  0
  9 10  1  0  0  0  0
  9 11  1  0  0  0  0
  9 16  1  0  0  0  0
  7  8  1  0  0  0  0
  7  9  1  0  0  0  0
 20 21  1  0  0  0  0
 20 22  1  0  0  0  0
 20 23  1  0  0  0  0
 18 19  1  0  0  0  0
 18 20  1  0  0  0  0
M  END
$$$$
default_name
  -OEChem-01062215323D

 23 22  0     1  0  0  0  0  0999 V2000
   -2.6721   -3.7279    0.7212 H   0  0  0  0  0  0  0  0  0  0  0  0
   -2.6561   -2.6819    0.4162 C   0  0  0  0  0  0  0  0  0  0  0  0
   -3.2401   -2.0889    1.1172 H   0  0  0  0  0  0  0  0  0  0  0  0
   -3.0671   -2.5859   -0.5858 H   0  0  0  0  0  0  0  0  0  0  0  0
   -1.2261   -2.1939    0.4202 C   0  0  0  0  0  0  0  0  0  0  0  0
   -0.3181   -2.9519    0.7312 O   0  0  0  0  0  0  0  0  0  0  0  0
   -1.0281   -0.9259    0.0662 N   0  0  0  0  0  0  0  0  0  0  0  0
   -1.8301   -0.3519   -0.1548 H   0  0  0  0  0  0  0  0  0  0  0  0
    0.2709   -0.2409    0.0912 C   0  0  1  0  0  0  0  0  0  0  0  0
    0.9659   -0.7829   -0.5505 H   0  0  0  0  0  0  0  0  0  0  0  0
    0.1223    1.1810   -0.4656 C   0  0  0  0  0  0  0  0  0  0  0  0
    1.1088    1.6418   -0.5379 H   0  0  0  0  0  0  0  0  0  0  0  0
   -0.3202    1.1379   -1.4625 H   0  0  0  0  0  0  0  0  0  0  0  0
   -0.6890    1.9729    0.3816 O   0  0  0  0  0  0  0  0  0  0  0  0
   -0.6160    2.8905    0.0974 H   0  0  0  0  0  0  0  0  0  0  0  0
    0.8483   -0.2295    1.5163 C   0  0  0  0  0  0  0  0  0  0  0  0
    1.3279    0.8063    1.9788 O   0  0  0  0  0  0  0  0  0  0  0  0
    0.7948   -1.3674    2.2169 N   0  0  0  0  0  0  0  0  0  0  0  0
    0.4692   -2.1875    1.7227 H   0  0  0  0  0  0  0  0  0  0  0  0
    1.2775   -1.5239    3.5876 C   0  0  0  0  0  0  0  0  0  0  0  0
    0.9393   -0.6832    4.1970 H   0  0  0  0  0  0  0  0  0  0  0  0
    0.8995   -2.4527    4.0158 H   0  0  0  0  0  0  0  0  0  0  0  0
    2.3694   -1.5415    3.5917 H   0  0  0  0  0  0  0  0  0  0  0  0
  5  6  2  0  0  0  0
  5  7  1  0  0  0  0
  2  3  1  0  0  0  0
  2  4  1  0  0  0  0
  2  5  1  0  0  0  0
  1  2  1  0  0  0  0
 16 17  2  0  0  0  0
 16 18  1  0  0  0  0
 14 15  1  0  0  0  0
 11 12  1  0  0  0  0
 11 13  1  0  0  0  0
 11 14  1  0  0  0  0
  9 10  1  0  0  0  0
  9 11  1  0  0  0  0
  9 16  1  0  0  0  0
  7  8  1  0  0  0  0
  7  9  1  0  0  0  0
 20 21  1  0  0  0  0
 20 22  1  0  0  0  0
 20 23  1  0  0  0  0
 18 19  1  0  0  0  0
 18 20  1  0  0  0  0
M  END
$$$$
default_name
  -OEChem-01062215323D

 23 22  0     1  0  0  0  0  0999 V2000
   -2.6721   -3.7279    0.7212 H   0  0  0  0  0  0  0  0  0  0  0  0
   -2.6561   -2.6819    0.4162 C   0  0  0  0  0  0  0  0  0  0  0  0
   -3.2401   -2.0889    1.1172 H   0  0  0  0  0  0  0  0  0  0  0  0
   -3.0671   -2.5859   -0.5858 H   0  0  0  0  0  0  0  0  0  0  0  0
   -1.2261   -2.1939    0.4202 C   0  0  0  0  0  0  0  0  0  0  0  0
   -0.3181   -2.9519    0.7312 O   0  0  0  0  0  0  0  0  0  0  0  0
   -1.0281   -0.9259    0.0662 N   0  0  0  0  0  0  0  0  0  0  0  0
   -1.8301   -0.3519   -0.1548 H   0  0  0  0  0  0  0  0  0  0  0  0
    0.2709   -0.2409    0.0912 C   0  0  1  0  0  0  0  0  0  0  0  0
    0.9659   -0.7829   -0.5505 H   0  0  0  0  0  0  0  0  0  0  0  0
    0.1223    1.1810   -0.4656 C   0  0  0  0  0  0  0  0  0  0  0  0
    1.1088    1.6418   -0.5379 H   0  0  0  0  0  0  0  0  0  0  0  0
   -0.3202    1.1379   -1.4625 H   0  0  0  0  0  0  0  0  0  0  0  0
   -0.6890    1.9729    0.3816 O   0  0  0  0  0  0  0  0  0  0  0  0
   -0.6160    2.8905    0.0974 H   0  0  0  0  0  0  0  0  0  0  0  0
    0.8483   -0.2295    1.5163 C   0  0  0  0  0  0  0  0  0  0  0  0
    1.0719    0.8413    2.0823 O   0  0  0  0  0  0  0  0  0  0  0  0
    1.0789   -1.4094    2.1021 N   0  0  0  0  0  0  0  0  0  0  0  0
    0.9526   -2.2318    1.5271 H   0  0  0  0  0  0  0  0  0  0  0  0
    1.6039   -1.5777    3.4558 C   0  0  0  0  0  0  0  0  0  0  0  0
    1.0824   -0.9058    4.1408 H   0  0  0  0  0  0  0  0  0  0  0  0
    1.4655   -2.6070    3.7877 H   0  0  0  0  0  0  0  0  0  0  0  0
    2.6680   -1.3330    3.4691 H   0  0  0  0  0  0  0  0  0  0  0  0
  5  6  2  0  0  0  0
  5  7  1  0  0  0  0
  2  3  1  0  0  0  0
  2  4  1  0  0  0  0
  2  5  1  0  0  0  0
  1  2  1  0  0  0  0
 16 17  2  0  0  0  0
 16 18  1  0  0  0  0
 14 15  1  0  0  0  0
 11 12  1  0  0  0  0
 11 13  1  0  0  0  0
 11 14  1  0  0  0  0
  9 10  1  0  0  0  0
  9 11  1  0  0  0  0
  9 16  1  0  0  0  0
  7  8  1  0  0  0  0
  7  9  1  0  0  0  0
 20 21  1  0  0  0  0
 20 22  1  0  0  0  0
 20 23  1  0  0  0  0
 18 19  1  0  0  0  0
 18 20  1  0  0  0  0
M  END
$$$$
default_name
  -OEChem-01062215323D

 23 22  0     1  0  0  0  0  0999 V2000
   -2.6721   -3.7279    0.7212 H   0  0  0  0  0  0  0  0  0  0  0  0
   -2.6561   -2.6819    0.4162 C   0  0  0  0  0  0  0  0  0  0  0  0
   -3.2401   -2.0889    1.1172 H   0  0  0  0  0  0  0  0  0  0  0  0
   -3.0671   -2.5859   -0.5858 H   0  0  0  0  0  0  0  0  0  0  0  0
   -1.2261   -2.1939    0.4202 C   0  0  0  0  0  0  0  0  0  0  0  0
   -0.3181   -2.9519    0.7312 O   0  0  0  0  0  0  0  0  0  0  0  0
   -1.0281   -0.9259    0.0662 N   0  0  0  0  0  0  0  0  0  0  0  0
   -1.8301   -0.3519   -0.1548 H   0  0  0  0  0  0  0  0  0  0  0  0
    0.2709   -0.2409    0.0912 C   0  0  1  0  0  0  0  0  0  0  0  0
    0.9659   -0.7829   -0.5505 H   0  0  0  0  0  0  0  0  0  0  0  0
    0.1223    1.1810   -0.4656 C   0  0  0  0  0  0  0  0  0  0  0  0
    1.1088    1.6418   -0.5379 H   0  0  0  0  0  0  0  0  0  0  0  0
   -0.3202    1.1379   -1.4625 H   0  0  0  0  0  0  0  0  0  0  0  0
   -0.6890    1.9729    0.3816 O   0  0  0  0  0  0  0  0  0  0  0  0
   -0.6160    2.8905    0.0974 H   0  0  0  0  0  0  0  0  0  0  0  0
    0.8483   -0.2295    1.5163 C   0  0  0  0  0  0  0  0  0  0  0  0
    0.8164    0.8035    2.1861 O   0  0  0  0  0  0  0  0  0  0  0  0
    1.3631   -1.3707    1.9867 N   0  0  0  0  0  0  0  0  0  0  0  0
    1.4298   -2.1396    1.3330 H   0  0  0  0  0  0  0  0  0  0  0  0
    1.9317   -1.5385    3.3226 C   0  0  0  0  0  0  0  0  0  0  0  0
    1.2739   -1.0811    4.0646 H   0  0  0  0  0  0  0  0  0  0  0  0
    2.0488   -2.5982    3.5513 H   0  0  0  0  0  0  0  0  0  0  0  0
    2.9062   -1.0481    3.3702 H   0  0  0  0  0  0  0  0  0  0  0  0
  5  6  2  0  0  0  0
  5  7  1  0  0  0  0
  2  3  1  0  0  0  0
  2  4  1  0  0  0  0
  2  5  1  0  0  0  0
  1  2  1  0  0  0  0
 16 17  2  0  0  0  0
 16 18  1  0  0  0  0
 14 15  1  0  0  0  0
 11 12  1  0  0  0  0
 11 13  1  0  0  0  0
 11 14  1  0  0  0  0
  9 10  1  0  0  0  0
  9 11  1  0  0  0  0
  9 16  1  0  0  0  0
  7  8  1  0  0  0  0
  7  9  1  0  0  0  0
 20 21  1  0  0  0  0
 20 22  1  0  0  0  0
 20 23  1  0  0  0  0
 18 19  1  0  0  0  0
 18 20  1  0  0  0  0
M  END
$$$$
default_name
  -OEChem-01062215323D

 23 22  0     1  0  0  0  0  0999 V2000
   -2.6721   -3.7279    0.7212 H   0  0  0  0  0  0  0  0  0  0  0  0
   -2.6561   -2.6819    0.4162 C   0  0  0  0  0  0  0  0  0  0  0  0
   -3.2401   -2.0889    1.1172 H   0  0  0  0  0  0  0  0  0  0  0  0
   -3.0671   -2.5859   -0.5858 H   0  0  0  0  0  0  0  0  0  0  0  0
   -1.2261   -2.1939    0.4202 C   0  0  0  0  0  0  0  0  0  0  0  0
   -0.3181   -2.9519    0.7312 O   0  0  0  0  0  0  0  0  0  0  0  0
   -1.0281   -0.9259    0.0662 N   0  0  0  0  0  0  0  0  0  0  0  0
   -1.8301   -0.3519   -0.1548 H   0  0  0  0  0  0  0  0  0  0  0  0
    0.2709   -0.2409    0.0912 C   0  0  1  0  0  0  0  0  0  0  0  0
    0.9659   -0.7829   -0.5505 H   0  0  0  0  0  0  0  0  0  0  0  0
    0.1223    1.1810   -0.4656 C   0  0  0  0  0  0  0  0  0  0  0  0
    1.1088    1.6418   -0.5379 H   0  0  0  0  0  0  0  0  0  0  0  0
   -0.3202    1.1379   -1.4625 H   0  0  0  0  0  0  0  0  0  0  0  0
   -0.6890    1.9729    0.3816 O   0  0  0  0  0  0  0  0  0  0  0  0
   -0.6160    2.8905    0.0974 H   0  0  0  0  0  0  0  0  0  0  0  0
    0.8483   -0.2295    1.5163 C   0  0  0  0  0  0  0  0  0  0  0  0
    0.5789    0.6957    2.2832 O   0  0  0  0  0  0  0  0  0  0  0  0
    1.6282   -1.2539    1.8783 N   0  0  0  0  0  0  0  0  0  0  0  0
    1.8683   -1.9172    1.1536 H   0  0  0  0  0  0  0  0  0  0  0  0
    2.2388   -1.4090    3.1972 C   0  0  0  0  0  0  0  0  0  0  0  0
    1.5007   -1.1970    3.9737 H   0  0  0  0  0  0  0  0  0  0  0  0
    2.6096   -2.4267    3.3226 H   0  0  0  0  0  0  0  0  0  0  0  0
    3.0678   -0.7061    3.3020 H   0  0  0  0  0  0  0  0  0  0  0  0
  5  6  2  0  0  0  0
  5  7  1  0  0  0  0
  2  3  1  0  0  0  0
  2  4  1  0  0  0  0
  2  5  1  0  0  0  0
  1  2  1  0  0  0  0
 16 17  2  0  0  0  0
 16 18  1  0  0  0  0
 14 15  1  0  0  0  0
 11 12  1  0  0  0  0
 11 13  1  0  0  0  0
 11 14  1  0  0  0  0
  9 10  1  0  0  0  0
  9 11  1  0  0  0  0
  9 16  1  0  0  0  0
  7  8  1  0  0  0  0
  7  9  1  0  0  0  0
 20 21  1  0  0  0  0
 20 22  1  0  0  0  0
 20 23  1  0  0  0  0
 18 19  1  0  0  0  0
 18 20  1  0  0  0  0
M  END
$$$$
default_name
  -OEChem-01062215323D

 23 22  0     1  0  0  0  0  0999 V2000
   -2.6721   -3.7279    0.7212 H   0  0  0  0  0  0  0  0  0  0  0  0
   -2.6561   -2.6819    0.4162 C   0  0  0  0  0  0  0  0  0  0  0  0
   -3.2401   -2.0889    1.1172 H   0  0  0  0  0  0  0  0  0  0  0  0
   -3.0671   -2.5859   -0.5858 H   0  0  0  0  0  0  0  0  0  0  0  0
   -1.2261   -2.1939    0.4202 C   0  0  0  0  0  0  0  0  0  0  0  0
   -0.3181   -2.9519    0.7312 O   0  0  0  0  0  0  0  0  0  0  0  0
   -1.0281   -0.9259    0.0662 N   0  0  0  0  0  0  0  0  0  0  0  0
   -1.8301   -0.3519   -0.1548 H   0  0  0  0  0  0  0  0  0  0  0  0
    0.2709   -0.2409    0.0912 C   0  0  1  0  0  0  0  0  0  0  0  0
    0.9659   -0.7829   -0.5505 H   0  0  0  0  0  0  0  0  0  0  0  0
    0.1223    1.1810   -0.4656 C   0  0  0  0  0  0  0  0  0  0  0  0
    1.1088    1.6418   -0.5379 H   0  0  0  0  0  0  0  0  0  0  0  0
   -0.3202    1.1379   -1.4625 H   0  0  0  0  0  0  0  0  0  0  0  0
   -0.6890    1.9729    0.3816 O   0  0  0  0  0  0  0  0  0  0  0  0
   -0.6160    2.8905    0.0974 H   0  0  0  0  0  0  0  0  0  0  0  0
    0.8483   -0.2295    1.5163 C   0  0  0  0  0  0  0  0  0  0  0  0
    0.3755    0.5252    2.3670 O   0  0  0  0  0  0  0  0  0  0  0  0
    1.8560   -1.0669    1.7845 N   0  0  0  0  0  0  0  0  0  0  0  0
    2.2381   -1.5798    1.0011 H   0  0  0  0  0  0  0  0  0  0  0  0
    2.5041   -1.1982    3.0880 C   0  0  0  0  0  0  0  0  0  0  0  0
    1.7474   -1.2458    3.8741 H   0  0  0  0  0  0  0  0  0  0  0  0
    3.1098   -2.1043    3.1174 H   0  0  0  0  0  0  0  0  0  0  0  0
    3.1418   -0.3304    3.2691 H   0  0  0  0  0  0  0  0  0  0  0  0
  5  6  2  0  0  0  0
  5  7  1  0  0  0  0
  2  3  1  0  0  0  0
  2  4  1  0  0  0  0
  2  5  1  0  0  0  0
  1  2  1  0  0  0  0
 16 17  2  0  0  0  0
 16 18  1  0  0  0  0
 14 15  1  0  0  0  0
 11 12  1  0  0  0  0
 11 13  1  0  0  0  0
 11 14  1  0  0  0  0
  9 10  1  0  0  0  0
  9 11  1  0  0  0  0
  9 16  1  0  0  0  0
  7  8  1  0  0  0  0
  7  9  1  0  0  0  0
 20 21  1  0  0  0  0
 20 22  1  0  0  0  0
 20 23  1  0  0  0  0
 18 19  1  0  0  0  0
 18 20  1  0  0  0  0
M  END
$$$$
default_name
  -OEChem-01062215323D

 23 22  0     1  0  0  0  0  0999 V2000
   -2.6721   -3.7279    0.7212 H   0  0  0  0  0  0  0  0  0  0  0  0
   -2.6561   -2.6819    0.4162 C   0  0  0  0  0  0  0  0  0  0  0  0
   -3.2401   -2.0889    1.1172 H   0  0  0  0  0  0  0  0  0  0  0  0
   -3.0671   -2.5859   -0.5858 H   0  0  0  0  0  0  0  0  0  0  0  0
   -1.2261   -2.1939    0.4202 C   0  0  0  0  0  0  0  0  0  0  0  0
   -0.3181   -2.9519    0.7312 O   0  0  0  0  0  0  0  0  0  0  0  0
   -1.0281   -0.9259    0.0662 N   0  0  0  0  0  0  0  0  0  0  0  0
   -1.8301   -0.3519   -0.1548 H   0  0  0  0  0  0  0  0  0  0  0  0
    0.2709   -0.2409    0.0912 C   0  0  1  0  0  0  0  0  0  0  0  0
    0.9659   -0.7829   -0.5505 H   0  0  0  0  0  0  0  0  0  0  0  0
    0.1223    1.1810   -0.4656 C   0  0  0  0  0  0  0  0  0  0  0  0
    1.1088    1.6418   -0.5379 H   0  0  0  0  0  0  0  0  0  0  0  0
   -0.3202    1.1379   -1.4625 H   0  0  0  0  0  0  0  0  0  0  0  0
   -0.6890    1.9729    0.3816 O   0  0  0  0  0  0  0  0  0  0  0  0
   -0.6160    2.8905    0.0974 H   0  0  0  0  0  0  0  0  0  0  0  0
    0.8483   -0.2295    1.5163 C   0  0  0  0  0  0  0  0  0  0  0  0
    0.2201    0.3035    2.4317 O   0  0  0  0  0  0  0  0  0  0  0  0
    2.0310   -0.8226    1.7117 N   0  0  0  0  0  0  0  0  0  0  0  0
    2.5141   -1.1503    0.8858 H   0  0  0  0  0  0  0  0  0  0  0  0
    2.7095   -0.9202    3.0025 C   0  0  0  0  0  0  0  0  0  0  0  0
    1.9973   -1.2240    3.7727 H   0  0  0  0  0  0  0  0  0  0  0  0
    3.5152   -1.6530    2.9495 H   0  0  0  0  0  0  0  0  0  0  0  0
    3.1230    0.0534    3.2736 H   0  0  0  0  0  0  0  0  0  0  0  0
  5  6  2  0  0  0  0
  5  7  1  0  0  0  0
  2  3  1  0  0  0  0
  2  4  1  0  0  0  0
  2  5  1  0  0  0  0
  1  2  1  0  0  0  0
 16 17  2  0  0  0  0
 16 18  1  0  0  0  0
 14 15  1  0  0  0  0
 11 12  1  0  0  0  0
 11 13  1  0  0  0  0
 11 14  1  0  0  0  0
  9 10  1  0  0  0  0
  9 11  1  0  0  0  0
  9 16  1  0  0  0  0
  7  8  1  0  0  0  0
  7  9  1  0  0  0  0
 20 21  1  0  0  0  0
 20 22  1  0  0  0  0
 20 23  1  0  0  0  0
 18 19  1  0  0  0  0
 18 20  1  0  0  0  0
M  END
$$$$
default_name
  -OEChem-01062215323D

 23 22  0     1  0  0  0  0  0999 V2000
   -2.6721   -3.7279    0.7212 H   0  0  0  0  0  0  0  0  0  0  0  0
   -2.6561   -2.6819    0.4162 C   0  0  0  0  0  0  0  0  0  0  0  0
   -3.2401   -2.0889    1.1172 H   0  0  0  0  0  0  0  0  0  0  0  0
   -3.0671   -2.5859   -0.5858 H   0  0  0  0  0  0  0  0  0  0  0  0
   -1.2261   -2.1939    0.4202 C   0  0  0  0  0  0  0  0  0  0  0  0
   -0.3181   -2.9519    0.7312 O   0  0  0  0  0  0  0  0  0  0  0  0
   -1.0281   -0.9259    0.0662 N   0  0  0  0  0  0  0  0  0  0  0  0
   -1.8301   -0.3519   -0.1548 H   0  0  0  0  0  0  0  0  0  0  0  0
    0.2709   -0.2409    0.0912 C   0  0  1  0  0  0  0  0  0  0  0  0
    0.9659   -0.7829   -0.5505 H   0  0  0  0  0  0  0  0  0  0  0  0
    0.1223    1.1810   -0.4656 C   0  0  0  0  0  0  0  0  0  0  0  0
    1.1088    1.6418   -0.5379 H   0  0  0  0  0  0  0  0  0  0  0  0
   -0.3202    1.1379   -1.4625 H   0  0  0  0  0  0  0  0  0  0  0  0
   -0.6890    1.9729    0.3816 O   0  0  0  0  0  0  0  0  0  0  0  0
   -0.6160    2.8905    0.0974 H   0  0  0  0  0  0  0  0  0  0  0  0
    0.8483   -0.2295    1.5163 C   0  0  0  0  0  0  0  0  0  0  0  0
    0.1233    0.0459    2.4730 O   0  0  0  0  0  0  0  0  0  0  0  0
    2.1413   -0.5376    1.6647 N   0  0  0  0  0  0  0  0  0  0  0  0
    2.6774   -0.6581    0.8157 H   0  0  0  0  0  0  0  0  0  0  0  0
    2.8411   -0.5942    2.9466 C   0  0  0  0  0  0  0  0  0  0  0  0
    2.2332   -1.1332    3.6763 H   0  0  0  0  0  0  0  0  0  0  0  0
    3.7982   -1.1036    2.8305 H   0  0  0  0  0  0  0  0  0  0  0  0
    3.0128    0.4192    3.3153 H   0  0  0  0  0  0  0  0  0  0  0  0
  5  6  2  0  0  0  0
  5  7  1  0  0  0  0
  2  3  1  0  0  0  0
  2  4  1  0  0  0  0
  2  5  1  0  0  0  0
  1  2  1  0  0  0  0
 16 17  2  0  0  0  0
 16 18  1  0  0  0  0
 14 15  1  0  0  0  0
 11 12  1  0  0  0  0
 11 13  1  0  0  0  0
 11 14  1  0  0  0  0
  9 10  1  0  0  0  0
  9 11  1  0  0  0  0
  9 16  1  0  0  0  0
  7  8  1  0  0  0  0
  7  9  1  0  0  0  0
 20 21  1  0  0  0  0
 20 22  1  0  0  0  0
 20 23  1  0  0  0  0
 18 19  1  0  0  0  0
 18 20  1  0  0  0  0
M  END
$$$$
default_name
  -OEChem-01062215323D

 23 22  0     1  0  0  0  0  0999 V2000
   -2.6721   -3.7279    0.7212 H   0  0  0  0  0  0  0  0  0  0  0  0
   -2.6561   -2.6819    0.4162 C   0  0  0  0  0  0  0  0  0  0  0  0
   -3.2401   -2.0889    1.1172 H   0  0  0  0  0  0  0  0  0  0  0  0
   -3.0671   -2.5859   -0.5858 H   0  0  0  0  0  0  0  0  0  0  0  0
   -1.2261   -2.1939    0.4202 C   0  0  0  0  0  0  0  0  0  0  0  0
   -0.3181   -2.9519    0.7312 O   0  0  0  0  0  0  0  0  0  0  0  0
   -1.0281   -0.9259    0.0662 N   0  0  0  0  0  0  0  0  0  0  0  0
   -1.8301   -0.3519   -0.1548 H   0  0  0  0  0  0  0  0  0  0  0  0
    0.2709   -0.2409    0.0912 C   0  0  1  0  0  0  0  0  0  0  0  0
    0.9659   -0.7829   -0.5505 H   0  0  0  0  0  0  0  0  0  0  0  0
    0.1223    1.1810   -0.4656 C   0  0  0  0  0  0  0  0  0  0  0  0
    1.1088    1.6418   -0.5379 H   0  0  0  0  0  0  0  0  0  0  0  0
   -0.3202    1.1379   -1.4625 H   0  0  0  0  0  0  0  0  0  0  0  0
   -0.6890    1.9729    0.3816 O   0  0  0  0  0  0  0  0  0  0  0  0
   -0.6160    2.8905    0.0974 H   0  0  0  0  0  0  0  0  0  0  0  0
    0.8483   -0.2295    1.5163 C   0  0  0  0  0  0  0  0  0  0  0  0
    0.0917   -0.2303    2.4880 O   0  0  0  0  0  0  0  0  0  0  0  0
    2.1793   -0.2312    1.6468 N   0  0  0  0  0  0  0  0  0  0  0  0
    2.7170   -0.1366    0.7955 H   0  0  0  0  0  0  0  0  0  0  0  0
    2.8900   -0.2422    2.9240 C   0  0  0  0  0  0  0  0  0  0  0  0
    2.4391   -0.9795    3.5917 H   0  0  0  0  0  0  0  0  0  0  0  0
    3.9396   -0.4933    2.7683 H   0  0  0  0  0  0  0  0  0  0  0  0
    2.8187    0.7420    3.3914 H   0  0  0  0  0  0  0  0  0  0  0  0
  5  6  2  0  0  0  0
  5  7  1  0  0  0  0
  2  3  1  0  0  0  0
  2  4  1  0  0  0  0
  2  5  1  0  0  0  0
  1  2  1  0  0  0  0
 16 17  2  0  0  0  0
 16 18  1  0  0  0  0
 14 15  1  0  0  0  0
 11 12  1  0  0  0  0
 11 13  1  0  0  0  0
 11 14  1  0  0  0  0
  9 10  1  0  0  0  0
  9 11  1  0  0  0  0
  9 16  1  0  0  0  0
  7  8  1  0  0  0  0
  7  9  1  0  0  0  0
 20 21  1  0  0  0  0
 20 22  1  0  0  0  0
 20 23  1  0  0  0  0
 18 19  1  0  0  0  0
 18 20  1  0  0  0  0
M  END
$$$$
default_name
  -OEChem-01062215323D

 23 22  0     1  0  0  0  0  0999 V2000
   -2.6721   -3.7279    0.7212 H   0  0  0  0  0  0  0  0  0  0  0  0
   -2.6561   -2.6819    0.4162 C   0  0  0  0  0  0  0  0  0  0  0  0
   -3.2401   -2.0889    1.1172 H   0  0  0  0  0  0  0  0  0  0  0  0
   -3.0671   -2.5859   -0.5858 H   0  0  0  0  0  0  0  0  0  0  0  0
   -1.2261   -2.1939    0.4202 C   0  0  0  0  0  0  0  0  0  0  0  0
   -0.3181   -2.9519    0.7312 O   0  0  0  0  0  0  0  0  0  0  0  0
   -1.0281   -0.9259    0.0662 N   0  0  0  0  0  0  0  0  0  0  0  0
   -1.8301   -0.3519   -0.1548 H   0  0  0  0  0  0  0  0  0  0  0  0
    0.2709   -0.2409    0.0912 C   0  0  1  0  0  0  0  0  0  0  0  0
    0.9659   -0.7829   -0.5505 H   0  0  0  0  0  0  0  0  0  0  0  0
    0.1223    1.1810   -0.4656 C   0  0  0  0  0  0  0  0  0  0  0  0
    1.1088    1.6418   -0.5379 H   0  0  0  0  0  0  0  0  0  0  0  0
   -0.3202    1.1379   -1.4625 H   0  0  0  0  0  0  0  0  0  0  0  0
   -0.6890    1.9729    0.3816 O   0  0  0  0  0  0  0  0  0  0  0  0
   -0.6160    2.8905    0.0974 H   0  0  0  0  0  0  0  0  0  0  0  0
    0.8483   -0.2295    1.5163 C   0  0  0  0  0  0  0  0  0  0  0  0
    0.1274   -0.5060    2.4758 O   0  0  0  0  0  0  0  0  0  0  0  0
    2.1426    0.0756    1.6593 N   0  0  0  0  0  0  0  0  0  0  0  0
    2.6301    0.3785    0.8266 H   0  0  0  0  0  0  0  0  0  0  0  0
    2.8527    0.1116    2.9363 C   0  0  0  0  0  0  0  0  0  0  0  0
    2.6010   -0.7735    3.5244 H   0  0  0  0  0  0  0  0  0  0  0  0
    3.9296    0.1360    2.7673 H   0  0  0  0  0  0  0  0  0  0  0  0
    2.5539    0.9999    3.4966 H   0  0  0  0  0  0  0  0  0  0  0  0
  5  6  2  0  0  0  0
  5  7  1  0  0  0  0
  2  3  1  0  0  0  0
  2  4  1  0  0  0  0
  2  5  1  0  0  0  0
  1  2  1  0  0  0  0
 16 17  2  0  0  0  0
 16 18  1  0  0  0  0
 14 15  1  0  0  0  0
 11 12  1  0  0  0  0
 11 13  1  0  0  0  0
 11 14  1  0  0  0  0
  9 10  1  0  0  0  0
  9 11  1  0  0  0  0
  9 16  1  0  0  0  0
  7  8  1  0  0  0  0
  7  9  1  0  0  0  0
 20 21  1  0  0  0  0
 20 22  1  0  0  0  0
 20 23  1  0  0  0  0
 18 19  1  0  0  0  0
 18 20  1  0  0  0  0
M  END
$$$$
default_name
  -OEChem-01062215323D

 23 22  0     1  0  0  0  0  0999 V2000
   -2.6721   -3.7279    0.7212 H   0  0  0  0  0  0  0  0  0  0  0  0
   -2.6561   -2.6819    0.4162 C   0  0  0  0  0  0  0  0  0  0  0  0
   -3.2401   -2.0889    1.1172 H   0  0  0  0  0  0  0  0  0  0  0  0
   -3.0671   -2.5859   -0.5858 H   0  0  0  0  0  0  0  0  0  0  0  0
   -1.2261   -2.1939    0.4202 C   0  0  0  0  0  0  0  0  0  0  0  0
   -0.3181   -2.9519    0.7312 O   0  0  0  0  0  0  0  0  0  0  0  0
   -1.0281   -0.9259    0.0662 N   0  0  0  0  0  0  0  0  0  0  0  0
   -1.8301   -0.3519   -0.1548 H   0  0  0  0  0  0  0  0  0  0  0  0
    0.2709   -0.2409    0.0912 C   0  0  1  0  0  0  0  0  0  0  0  0
    0.8777   -0.6089   -0.7364 H   0  0  0  0  0  0  0  0  0  0  0  0
    0.0696    1.2676   -0.1030 C   0  0  0  0  0  0  0  0  0  0  0  0
    1.0445    1.7509   -0.1857 H   0  0  0  0  0  0  0  0  0  0  0  0
   -0.4908    1.4455   -1.0225 H   0  0  0  0  0  0  0  0  0  0  0  0
   -0.6253    1.8298    0.9944 O   0  0  0  0  0  0  0  0  0  0  0  0
   -0.5784    2.7892    0.9214 H   0  0  0  0  0  0  0  0  0  0  0  0
    1.0169   -0.5450    1.4010 C   0  0  0  0  0  0  0  0  0  0  0  0
    0.5077   -1.2859    2.2427 O   0  0  0  0  0  0  0  0  0  0  0  0
    2.2214    0.0103    1.5726 N   0  0  0  0  0  0  0  0  0  0  0  0
    2.5162    0.6763    0.8709 H   0  0  0  0  0  0  0  0  0  0  0  0
    3.0706   -0.1906    2.7451 C   0  0  0  0  0  0  0  0  0  0  0  0
    3.0976   -1.2510    3.0048 H   0  0  0  0  0  0  0  0  0  0  0  0
    4.0842    0.1544    2.5391 H   0  0  0  0  0  0  0  0  0  0  0  0
    2.6638    0.3661    3.5918 H   0  0  0  0  0  0  0  0  0  0  0  0
  5  6  2  0  0  0  0
  5  7  1  0  0  0  0
  2  3  1  0  0  0  0
  2  4  1  0  0  0  0
  2  5  1  0  0  0  0
  1  2  1  0  0  0  0
 16 17  2  0  0  0  0
 16 18  1  0  0  0  0
 14 15  1  0  0  0  0
 11 12  1  0  0  0  0
 11 13  1  0  0  0  0
 11 14  1  0  0  0  0
  9 10  1  0  0  0  0
  9 11  1  0  0  0  0
  9 16  1  0  0  0  0
  7  8  1  0  0  0  0
  7  9  1  0  0  0  0
 20 21  1  0  0  0  0
 20 22  1  0  0  0  0
 20 23  1  0  0  0  0
 18 19  1  0  0  0  0
 18 20  1  0  0  0  0
M  END
$$$$
default_name
  -OEChem-01062215323D

 23 22  0     1  0  0  0  0  0999 V2000
   -2.6721   -3.7279    0.7212 H   0  0  0  0  0  0  0  0  0  0  0  0
   -2.6561   -2.6819    0.4162 C   0  0  0  0  0  0  0  0  0  0  0  0
   -3.2401   -2.0889    1.1172 H   0  0  0  0  0  0  0  0  0  0  0  0
   -3.0671   -2.5859   -0.5858 H   0  0  0  0  0  0  0  0  0  0  0  0
   -1.2261   -2.1939    0.4202 C   0  0  0  0  0  0  0  0  0  0  0  0
   -0.3181   -2.9519    0.7312 O   0  0  0  0  0  0  0  0  0  0  0  0
   -1.0281   -0.9259    0.0662 N   0  0  0  0  0  0  0  0  0  0  0  0
   -1.8301   -0.3519   -0.1548 H   0  0  0  0  0  0  0  0  0  0  0  0
    0.2709   -0.2409    0.0912 C   0  0  1  0  0  0  0  0  0  0  0  0
    0.8777   -0.6089   -0.7364 H   0  0  0  0  0  0  0  0  0  0  0  0
    0.0696    1.2676   -0.1030 C   0  0  0  0  0  0  0  0  0  0  0  0
    1.0445    1.7509   -0.1857 H   0  0  0  0  0  0  0  0  0  0  0  0
   -0.4908    1.4455   -1.0225 H   0  0  0  0  0  0  0  0  0  0  0  0
   -0.6253    1.8298    0.9944 O   0  0  0  0  0  0  0  0  0  0  0  0
   -0.5784    2.7892    0.9214 H   0  0  0  0  0  0  0  0  0  0  0  0
    1.0169   -0.5450    1.4010 C   0  0  0  0  0  0  0  0  0  0  0  0
    0.6555   -1.4827    2.1128 O   0  0  0  0  0  0  0  0  0  0  0  0
    2.0595    0.2312    1.7162 N   0  0  0  0  0  0  0  0  0  0  0  0
    2.2235    1.0316    1.1201 H   0  0  0  0  0  0  0  0  0  0  0  0
    2.8880    0.0673    2.9090 C   0  0  0  0  0  0  0  0  0  0  0  0
    3.1419   -0.9866    3.0410 H   0  0  0  0  0  0  0  0  0  0  0  0
    3.8056    0.6483    2.8124 H   0  0  0  0  0  0  0  0  0  0  0  0
    2.3358    0.4063    3.7880 H   0  0  0  0  0  0  0  0  0  0  0  0
  5  6  2  0  0  0  0
  5  7  1  0  0  0  0
  2  3  1  0  0  0  0
  2  4  1  0  0  0  0
  2  5  1  0  0  0  0
  1  2  1  0  0  0  0
 16 17  2  0  0  0  0
 16 18  1  0  0  0  0
 14 15  1  0  0  0  0
 11 12  1  0  0  0  0
 11 13  1  0  0  0  0
 11 14  1  0  0  0  0
  9 10  1  0  0  0  0
  9 11  1  0  0  0  0
  9 16  1  0  0  0  0
  7  8  1  0  0  0  0
  7  9  1  0  0  0  0
 20 21  1  0  0  0  0
 20 22  1  0  0  0  0
 20 23  1  0  0  0  0
 18 19  1  0  0  0  0
 18 20  1  0  0  0  0
M  END
$$$$
default_name
  -OEChem-01062215323D

 23 22  0     1  0  0  0  0  0999 V2000
   -2.6721   -3.7279    0.7212 H   0  0  0  0  0  0  0  0  0  0  0  0
   -2.6561   -2.6819    0.4162 C   0  0  0  0  0  0  0  0  0  0  0  0
   -3.2401   -2.0889    1.1172 H   0  0  0  0  0  0  0  0  0  0  0  0
   -3.0671   -2.5859   -0.5858 H   0  0  0  0  0  0  0  0  0  0  0  0
   -1.2261   -2.1939    0.4202 C   0  0  0  0  0  0  0  0  0  0  0  0
   -0.3181   -2.9519    0.7312 O   0  0  0  0  0  0  0  0  0  0  0  0
   -1.0281   -0.9259    0.0662 N   0  0  0  0  0  0  0  0  0  0  0  0
   -1.8301   -0.3519   -0.1548 H   0  0  0  0  0  0  0  0  0  0  0  0
    0.2709   -0.2409    0.0912 C   0  0  1  0  0  0  0  0  0  0  0  0
    0.8777   -0.6089   -0.7364 H   0  0  0  0  0  0  0  0  0  0  0  0
    0.0696    1.2676   -0.1030 C   0  0  0  0  0  0  0  0  0  0  0  0
    1.0445    1.7509   -0.1857 H   0  0  0  0  0  0  0  0  0  0  0  0
   -0.4908    1.4455   -1.0225 H   0  0  0  0  0  0  0  0  0  0  0  0
   -0.6253    1.8298    0.9944 O   0  0  0  0  0  0  0  0  0  0  0  0
   -0.5784    2.7892    0.9214 H   0  0  0  0  0  0  0  0  0  0  0  0
    1.0169   -0.5450    1.4010 C   0  0  0  0  0  0  0  0  0  0  0  0
    0.8483   -1.6240    1.9702 O   0  0  0  0  0  0  0  0  0  0  0  0
    1.8470    0.3908    1.8742 N   0  0  0  0  0  0  0  0  0  0  0  0
    1.8498    1.2789    1.3904 H   0  0  0  0  0  0  0  0  0  0  0  0
    2.6463    0.2556    3.0904 C   0  0  0  0  0  0  0  0  0  0  0  0
    3.1245   -0.7260    3.1115 H   0  0  0  0  0  0  0  0  0  0  0  0
    3.4136    1.0295    3.1242 H   0  0  0  0  0  0  0  0  0  0  0  0
    2.0000    0.3482    3.9657 H   0  0  0  0  0  0  0  0  0  0  0  0
  5  6  2  0  0  0  0
  5  7  1  0  0  0  0
  2  3  1  0  0  0  0
  2  4  1  0  0  0  0
  2  5  1  0  0  0  0
  1  2  1  0  0  0  0
 16 17  2  0  0  0  0
 16 18  1  0  0  0  0
 14 15  1  0  0  0  0
 11 12  1  0  0  0  0
 11 13  1  0  0  0  0
 11 14  1  0  0  0  0
  9 10  1  0  0  0  0
  9 11  1  0  0  0  0
  9 16  1  0  0  0  0
  7  8  1  0  0  0  0
  7  9  1  0  0  0  0
 20 21  1  0  0  0  0
 20 22  1  0  0  0  0
 20 23  1  0  0  0  0
 18 19  1  0  0  0  0
 18 20  1  0  0  0  0
M  END
$$$$
default_name
  -OEChem-01062215323D

 23 22  0     1  0  0  0  0  0999 V2000
   -2.6721   -3.7279    0.7212 H   0  0  0  0  0  0  0  0  0  0  0  0
   -2.6561   -2.6819    0.4162 C   0  0  0  0  0  0  0  0  0  0  0  0
   -3.2401   -2.0889    1.1172 H   0  0  0  0  0  0  0  0  0  0  0  0
   -3.0671   -2.5859   -0.5858 H   0  0  0  0  0  0  0  0  0  0  0  0
   -1.2261   -2.1939    0.4202 C   0  0  0  0  0  0  0  0  0  0  0  0
   -0.3181   -2.9519    0.7312 O   0  0  0  0  0  0  0  0  0  0  0  0
   -1.0281   -0.9259    0.0662 N   0  0  0  0  0  0  0  0  0  0  0  0
   -1.8301   -0.3519   -0.1548 H   0  0  0  0  0  0  0  0  0  0  0  0
    0.2709   -0.2409    0.0912 C   0  0  1  0  0  0  0  0  0  0  0  0
    0.8777   -0.6089   -0.7364 H   0  0  0  0  0  0  0  0  0  0  0  0
    0.0696    1.2676   -0.1030 C   0  0  0  0  0  0  0  0  0  0  0  0
    1.0445    1.7509   -0.1857 H   0  0  0  0  0  0  0  0  0  0  0  0
   -0.4908    1.4455   -1.0225 H   0  0  0  0  0  0  0  0  0  0  0  0
   -0.6253    1.8298    0.9944 O   0  0  0  0  0  0  0  0  0  0  0  0
   -0.5784    2.7892    0.9214 H   0  0  0  0  0  0  0  0  0  0  0  0
    1.0169   -0.5450    1.4010 C   0  0  0  0  0  0  0  0  0  0  0  0
    1.0729   -1.7000    1.8246 O   0  0  0  0  0  0  0  0  0  0  0  0
    1.5984    0.4783    2.0361 N   0  0  0  0  0  0  0  0  0  0  0  0
    1.4205    1.4014    1.6634 H   0  0  0  0  0  0  0  0  0  0  0  0
    2.3620    0.3614    3.2769 C   0  0  0  0  0  0  0  0  0  0  0  0
    3.0466   -0.4869    3.2113 H   0  0  0  0  0  0  0  0  0  0  0  0
    2.9350    1.2722    3.4532 H   0  0  0  0  0  0  0  0  0  0  0  0
    1.6794    0.1957    4.1129 H   0  0  0  0  0  0  0  0  0  0  0  0
  5  6  2  0  0  0  0
  5  7  1  0  0  0  0
  2  3  1  0  0  0  0
  2  4  1  0  0  0  0
  2  5  1  0  0  0  0
  1  2  1  0  0  0  0
 16 17  2  0  0  0  0
 16 18  1  0  0  0  0
 14 15  1  0  0  0  0
 11 12  1  0  0  0  0
 11 13  1  0  0  0  0
 11 14  1  0  0  0  0
  9 10  1  0  0  0  0
  9 11  1  0  0  0  0
  9 16  1  0  0  0  0
  7  8  1  0  0  0  0
  7  9  1  0  0  0  0
 20 21  1  0  0  0  0
 20 22  1  0  0  0  0
 20 23  1  0  0  0  0
 18 19  1  0  0  0  0
 18 20  1  0  0  0  0
M  END
$$$$
default_name
  -OEChem-01062215323D

 23 22  0     1  0  0  0  0  0999 V2000
   -2.6721   -3.7279    0.7212 H   0  0  0  0  0  0  0  0  0  0  0  0
   -2.6561   -2.6819    0.4162 C   0  0  0  0  0  0  0  0  0  0  0  0
   -3.2401   -2.0889    1.1172 H   0  0  0  0  0  0  0  0  0  0  0  0
   -3.0671   -2.5859   -0.5858 H   0  0  0  0  0  0  0  0  0  0  0  0
   -1.2261   -2.1939    0.4202 C   0  0  0  0  0  0  0  0  0  0  0  0
   -0.3181   -2.9519    0.7312 O   0  0  0  0  0  0  0  0  0  0  0  0
   -1.0281   -0.9259    0.0662 N   0  0  0  0  0  0  0  0  0  0  0  0
   -1.8301   -0.3519   -0.1548 H   0  0  0  0  0  0  0  0  0  0  0  0
    0.2709   -0.2409    0.0912 C   0  0  1  0  0  0  0  0  0  0  0  0
    0.8777   -0.6089   -0.7364 H   0  0  0  0  0  0  0  0  0  0  0  0
    0.0696    1.2676   -0.1030 C   0  0  0  0  0  0  0  0  0  0  0  0
    1.0445    1.7509   -0.1857 H   0  0  0  0  0  0  0  0  0  0  0  0
   -0.4908    1.4455   -1.0225 H   0  0  0  0  0  0  0  0  0  0  0  0
   -0.6253    1.8298    0.9944 O   0  0  0  0  0  0  0  0  0  0  0  0
   -0.5784    2.7892    0.9214 H   0  0  0  0  0  0  0  0  0  0  0  0
    1.0169   -0.5450    1.4010 C   0  0  0  0  0  0  0  0  0  0  0  0
    1.3142   -1.7057    1.6858 O   0  0  0  0  0  0  0  0  0  0  0  0
    1.3308    0.4877    2.1908 N   0  0  0  0  0  0  0  0  0  0  0  0
    0.9648    1.3909    1.9205 H   0  0  0  0  0  0  0  0  0  0  0  0
    2.0546    0.3776    3.4557 C   0  0  0  0  0  0  0  0  0  0  0  0
    2.9136   -0.2857    3.3338 H   0  0  0  0  0  0  0  0  0  0  0  0
    2.4023    1.3599    3.7769 H   0  0  0  0  0  0  0  0  0  0  0  0
    1.3959   -0.0408    4.2195 H   0  0  0  0  0  0  0  0  0  0  0  0
  5  6  2  0  0  0  0
  5  7  1  0  0  0  0
  2  3  1  0  0  0  0
  2  4  1  0  0  0  0
  2  5  1  0  0  0  0
  1  2  1  0  0  0  0
 16 17  2  0  0  0  0
 16 18  1  0  0  0  0
 14 15  1  0  0  0  0
 11 12  1  0  0  0  0
 11 13  1  0  0  0  0
 11 14  1  0  0  0  0
  9 10  1  0  0  0  0
  9 11  1  0  0  0  0
  9 16  1  0  0  0  0
  7  8  1  0  0  0  0
  7  9  1  0  0  0  0
 20 21  1  0  0  0  0
 20 22  1  0  0  0  0
 20 23  1  0  0  0  0
 18 19  1  0  0  0  0
 18 20  1  0  0  0  0
M  END
$$$$
default_name
  -OEChem-01062215323D

 23 22  0     1  0  0  0  0  0999 V2000
   -2.6721   -3.7279    0.7212 H   0  0  0  0  0  0  0  0  0  0  0  0
   -2.6561   -2.6819    0.4162 C   0  0  0  0  0  0  0  0  0  0  0  0
   -3.2401   -2.0889    1.1172 H   0  0  0  0  0  0  0  0  0  0  0  0
   -3.0671   -2.5859   -0.5858 H   0  0  0  0  0  0  0  0  0  0  0  0
   -1.2261   -2.1939    0.4202 C   0  0  0  0  0  0  0  0  0  0  0  0
   -0.3181   -2.9519    0.7312 O   0  0  0  0  0  0  0  0  0  0  0  0
   -1.0281   -0.9259    0.0662 N   0  0  0  0  0  0  0  0  0  0  0  0
   -1.8301   -0.3519   -0.1548 H   0  0  0  0  0  0  0  0  0  0  0  0
    0.2709   -0.2409    0.0912 C   0  0  1  0  0  0  0  0  0  0  0  0
    0.8777   -0.6089   -0.7364 H   0  0  0  0  0  0  0  0  0  0  0  0
    0.0696    1.2676   -0.1030 C   0  0  0  0  0  0  0  0  0  0  0  0
    1.0445    1.7509   -0.1857 H   0  0  0  0  0  0  0  0  0  0  0  0
   -0.4908    1.4455   -1.0225 H   0  0  0  0  0  0  0  0  0  0  0  0
   -0.6253    1.8298    0.9944 O   0  0  0  0  0  0  0  0  0  0  0  0
   -0.5784    2.7892    0.9214 H   0  0  0  0  0  0  0  0  0  0  0  0
    1.0169   -0.5450    1.4010 C   0  0  0  0  0  0  0  0  0  0  0  0
    1.5556   -1.6405    1.5635 O   0  0  0  0  0  0  0  0  0  0  0  0
    1.0623    0.4183    2.3276 N   0  0  0  0  0  0  0  0  0  0  0  0
    0.5137    1.2480    2.1442 H   0  0  0  0  0  0  0  0  0  0  0  0
    1.7449    0.3029    3.6148 C   0  0  0  0  0  0  0  0  0  0  0  0
    2.7344   -0.1361    3.4706 H   0  0  0  0  0  0  0  0  0  0  0  0
    1.8519    1.2864    4.0734 H   0  0  0  0  0  0  0  0  0  0  0  0
    1.1686   -0.3451    4.2783 H   0  0  0  0  0  0  0  0  0  0  0  0
  5  6  2  0  0  0  0
  5  7  1  0  0  0  0
  2  3  1  0  0  0  0
  2  4  1  0  0  0  0
  2  5  1  0  0  0  0
  1  2  1  0  0  0  0
 16 17  2  0  0  0  0
 16 18  1  0  0  0  0
 14 15  1  0  0  0  0
 11 12  1  0  0  0  0
 11 13  1  0  0  0  0
 11 14  1  0  0  0  0
  9 10  1  0  0  0  0
  9 11  1  0  0  0  0
  9 16  1  0  0  0  0
  7  8  1  0  0  0  0
  7  9  1  0  0  0  0
 20 21  1  0  0  0  0
 20 22  1  0  0  0  0
 20 23  1  0  0  0  0
 18 19  1  0  0  0  0
 18 20  1  0  0  0  0
M  END
$$$$
default_name
  -OEChem-01062215323D

 23 22  0     1  0  0  0  0  0999 V2000
   -2.6721   -3.7279    0.7212 H   0  0  0  0  0  0  0  0  0  0  0  0
   -2.6561   -2.6819    0.4162 C   0  0  0  0  0  0  0  0  0  0  0  0
   -3.2401   -2.0889    1.1172 H   0  0  0  0  0  0  0  0  0  0  0  0
   -3.0671   -2.5859   -0.5858 H   0  0  0  0  0  0  0  0  0  0  0  0
   -1.2261   -2.1939    0.4202 C   0  0  0  0  0  0  0  0  0  0  0  0
   -0.3181   -2.9519    0.7312 O   0  0  0  0  0  0  0  0  0  0  0  0
   -1.0281   -0.9259    0.0662 N   0  0  0  0  0  0  0  0  0  0  0  0
   -1.8301   -0.3519   -0.1548 H   0  0  0  0  0  0  0  0  0  0  0  0
    0.2709   -0.2409    0.0912 C   0  0  1  0  0  0  0  0  0  0  0  0
    0.8777   -0.6089   -0.7364 H   0  0  0  0  0  0  0  0  0  0  0  0
    0.0696    1.2676   -0.1030 C   0  0  0  0  0  0  0  0  0  0  0  0
    1.0445    1.7509   -0.1857 H   0  0  0  0  0  0  0  0  0  0  0  0
   -0.4908    1.4455   -1.0225 H   0  0  0  0  0  0  0  0  0  0  0  0
   -0.6253    1.8298    0.9944 O   0  0  0  0  0  0  0  0  0  0  0  0
   -0.5784    2.7892    0.9214 H   0  0  0  0  0  0  0  0  0  0  0  0
    1.0169   -0.5450    1.4010 C   0  0  0  0  0  0  0  0  0  0  0  0
    1.7806   -1.5090    1.4658 O   0  0  0  0  0  0  0  0  0  0  0  0
    0.8112    0.2750    2.4373 N   0  0  0  0  0  0  0  0  0  0  0  0
    0.0981    0.9824    2.3193 H   0  0  0  0  0  0  0  0  0  0  0  0
    1.4541    0.1426    3.7432 C   0  0  0  0  0  0  0  0  0  0  0  0
    2.5214   -0.0482    3.6123 H   0  0  0  0  0  0  0  0  0  0  0  0
    1.3213    1.0569    4.3223 H   0  0  0  0  0  0  0  0  0  0  0  0
    1.0132   -0.6965    4.2853 H   0  0  0  0  0  0  0  0  0  0  0  0
  5  6  2  0  0  0  0
  5  7  1  0  0  0  0
  2  3  1  0  0  0  0
  2  4  1  0  0  0  0
  2  5  1  0  0  0  0
  1  2  1  0  0  0  0
 16 17  2  0  0  0  0
 16 18  1  0  0  0  0
 14 15  1  0  0  0  0
 11 12  1  0  0  0  0
 11 13  1  0  0  0  0
 11 14  1  0  0  0  0
  9 10  1  0  0  0  0
  9 11  1  0  0  0  0
  9 16  1  0  0  0  0
  7  8  1  0  0  0  0
  7  9  1  0  0  0  0
 20 21  1  0  0  0  0
 20 22  1  0  0  0  0
 20 23  1  0  0  0  0
 18 19  1  0  0  0  0
 18 20  1  0  0  0  0
M  END
$$$$
default_name
  -OEChem-01062215323D

 23 22  0     1  0  0  0  0  0999 V2000
   -2.6721   -3.7279    0.7212 H   0  0  0  0  0  0  0  0  0  0  0  0
   -2.6561   -2.6819    0.4162 C   0  0  0  0  0  0  0  0  0  0  0  0
   -3.2401   -2.0889    1.1172 H   0  0  0  0  0  0  0  0  0  0  0  0
   -3.0671   -2.5859   -0.5858 H   0  0  0  0  0  0  0  0  0  0  0  0
   -1.2261   -2.1939    0.4202 C   0  0  0  0  0  0  0  0  0  0  0  0
   -0.3181   -2.9519    0.7312 O   0  0  0  0  0  0  0  0  0  0  0  0
   -1.0281   -0.9259    0.0662 N   0  0  0  0  0  0  0  0  0  0  0  0
   -1.8301   -0.3519   -0.1548 H   0  0  0  0  0  0  0  0  0  0  0  0
    0.2709   -0.2409    0.0912 C   0  0  1  0  0  0  0  0  0  0  0  0
    0.8777   -0.6089   -0.7364 H   0  0  0  0  0  0  0  0  0  0  0  0
    0.0696    1.2676   -0.1030 C   0  0  0  0  0  0  0  0  0  0  0  0
    1.0445    1.7509   -0.1857 H   0  0  0  0  0  0  0  0  0  0  0  0
   -0.4908    1.4455   -1.0225 H   0  0  0  0  0  0  0  0  0  0  0  0
   -0.6253    1.8298    0.9944 O   0  0  0  0  0  0  0  0  0  0  0  0
   -0.5784    2.7892    0.9214 H   0  0  0  0  0  0  0  0  0  0  0  0
    1.0169   -0.5450    1.4010 C   0  0  0  0  0  0  0  0  0  0  0  0
    1.9740   -1.3201    1.3996 O   0  0  0  0  0  0  0  0  0  0  0  0
    0.5947    0.0674    2.5124 N   0  0  0  0  0  0  0  0  0  0  0  0
   -0.2537    0.6123    2.4337 H   0  0  0  0  0  0  0  0  0  0  0  0
    1.2020   -0.0925    3.8322 C   0  0  0  0  0  0  0  0  0  0  0  0
    2.2891   -0.0281    3.7493 H   0  0  0  0  0  0  0  0  0  0  0  0
    0.8466    0.6870    4.5068 H   0  0  0  0  0  0  0  0  0  0  0  0
    0.9402   -1.0711    4.2399 H   0  0  0  0  0  0  0  0  0  0  0  0
  5  6  2  0  0  0  0
  5  7  1  0  0  0  0
  2  3  1  0  0  0  0
  2  4  1  0  0  0  0
  2  5  1  0  0  0  0
  1  2  1  0  0  0  0
 16 17  2  0  0  0  0
 16 18  1  0  0  0  0
 14 15  1  0  0  0  0
 11 12  1  0  0  0  0
 11 13  1  0  0  0  0
 11 14  1  0  0  0  0
  9 10  1  0  0  0  0
  9 11  1  0  0  0  0
  9 16  1  0  0  0  0
  7  8  1  0  0  0  0
  7  9  1  0  0  0  0
 20 21  1  0  0  0  0
 20 22  1  0  0  0  0
 20 23  1  0  0  0  0
 18 19  1  0  0  0  0
 18 20  1  0  0  0  0
M  END
$$$$
default_name
  -OEChem-01062215323D

 23 22  0     1  0  0  0  0  0999 V2000
   -2.6721   -3.7279    0.7212 H   0  0  0  0  0  0  0  0  0  0  0  0
   -2.6561   -2.6819    0.4162 C   0  0  0  0  0  0  0  0  0  0  0  0
   -3.2401   -2.0889    1.1172 H   0  0  0  0  0  0  0  0  0  0  0  0
   -3.0671   -2.5859   -0.5858 H   0  0  0  0  0  0  0  0  0  0  0  0
   -1.2261   -2.1939    0.4202 C   0  0  0  0  0  0  0  0  0  0  0  0
   -0.3181   -2.9519    0.7312 O   0  0  0  0  0  0  0  0  0  0  0  0
   -1.0281   -0.9259    0.0662 N   0  0  0  0  0  0  0  0  0  0  0  0
   -1.8301   -0.3519   -0.1548 H   0  0  0  0  0  0  0  0  0  0  0  0
    0.2709   -0.2409    0.0912 C   0  0  1  0  0  0  0  0  0  0  0  0
    0.8777   -0.6089   -0.7364 H   0  0  0  0  0  0  0  0  0  0  0  0
    0.0696    1.2676   -0.1030 C   0  0  0  0  0  0  0  0  0  0  0  0
    1.0445    1.7509   -0.1857 H   0  0  0  0  0  0  0  0  0  0  0  0
   -0.4908    1.4455   -1.0225 H   0  0  0  0  0  0  0  0  0  0  0  0
   -0.6253    1.8298    0.9944 O   0  0  0  0  0  0  0  0  0  0  0  0
   -0.5784    2.7892    0.9214 H   0  0  0  0  0  0  0  0  0  0  0  0
    1.0169   -0.5450    1.4010 C   0  0  0  0  0  0  0  0  0  0  0  0
    2.1225   -1.0867    1.3692 O   0  0  0  0  0  0  0  0  0  0  0  0
    0.4275   -0.1903    2.5479 N   0  0  0  0  0  0  0  0  0  0  0  0
   -0.5178    0.1628    2.4798 H   0  0  0  0  0  0  0  0  0  0  0  0
    1.0058   -0.3864    3.8758 C   0  0  0  0  0  0  0  0  0  0  0  0
    2.0532   -0.0771    3.8723 H   0  0  0  0  0  0  0  0  0  0  0  0
    0.4602    0.2018    4.6143 H   0  0  0  0  0  0  0  0  0  0  0  0
    0.9546   -1.4433    4.1453 H   0  0  0  0  0  0  0  0  0  0  0  0
  5  6  2  0  0  0  0
  5  7  1  0  0  0  0
  2  3  1  0  0  0  0
  2  4  1  0  0  0  0
  2  5  1  0  0  0  0
  1  2  1  0  0  0  0
 16 17  2  0  0  0  0
 16 18  1  0  0  0  0
 14 15  1  0  0  0  0
 11 12  1  0  0  0  0
 11 13  1  0  0  0  0
 11 14  1  0  0  0  0
  9 10  1  0  0  0  0
  9 11  1  0  0  0  0
  9 16  1  0  0  0  0
  7  8  1  0  0  0  0
  7  9  1  0  0  0  0
 20 21  1  0  0  0  0
 20 22  1  0  0  0  0
 20 23  1  0  0  0  0
 18 19  1  0  0  0  0
 18 20  1  0  0  0  0
M  END
$$$$
default_name
  -OEChem-01062215323D

 23 22  0     1  0  0  0  0  0999 V2000
   -2.6721   -3.7279    0.7212 H   0  0  0  0  0  0  0  0  0  0  0  0
   -2.6561   -2.6819    0.4162 C   0  0  0  0  0  0  0  0  0  0  0  0
   -3.2401   -2.0889    1.1172 H   0  0  0  0  0  0  0  0  0  0  0  0
   -3.0671   -2.5859   -0.5858 H   0  0  0  0  0  0  0  0  0  0  0  0
   -1.2261   -2.1939    0.4202 C   0  0  0  0  0  0  0  0  0  0  0  0
   -0.3181   -2.9519    0.7312 O   0  0  0  0  0  0  0  0  0  0  0  0
   -1.0281   -0.9259    0.0662 N   0  0  0  0  0  0  0  0  0  0  0  0
   -1.8301   -0.3519   -0.1548 H   0  0  0  0  0  0  0  0  0  0  0  0
    0.2709   -0.2409    0.0912 C   0  0  1  0  0  0  0  0  0  0  0  0
    0.8777   -0.6089   -0.7364 H   0  0  0  0  0  0  0  0  0  0  0  0
    0.0696    1.2676   -0.1030 C   0  0  0  0  0  0  0  0  0  0  0  0
    1.0445    1.7509   -0.1857 H   0  0  0  0  0  0  0  0  0  0  0  0
   -0.4908    1.4455   -1.0225 H   0  0  0  0  0  0  0  0  0  0  0  0
   -0.6253    1.8298    0.9944 O   0  0  0  0  0  0  0  0  0  0  0  0
   -0.5784    2.7892    0.9214 H   0  0  0  0  0  0  0  0  0  0  0  0
    1.0169   -0.5450    1.4010 C   0  0  0  0  0  0  0  0  0  0  0  0
    2.2161   -0.8246    1.3767 O   0  0  0  0  0  0  0  0  0  0  0  0
    0.3209   -0.4806    2.5412 N   0  0  0  0  0  0  0  0  0  0  0  0
   -0.6762   -0.3353    2.4544 H   0  0  0  0  0  0  0  0  0  0  0  0
    0.8788   -0.7189    3.8709 C   0  0  0  0  0  0  0  0  0  0  0  0
    1.8298   -0.1918    3.9729 H   0  0  0  0  0  0  0  0  0  0  0  0
    0.1884   -0.3655    4.6374 H   0  0  0  0  0  0  0  0  0  0  0  0
    1.0554   -1.7878    4.0079 H   0  0  0  0  0  0  0  0  0  0  0  0
  5  6  2  0  0  0  0
  5  7  1  0  0  0  0
  2  3  1  0  0  0  0
  2  4  1  0  0  0  0
  2  5  1  0  0  0  0
  1  2  1  0  0  0  0
 16 17  2  0  0  0  0
 16 18  1  0  0  0  0
 14 15  1  0  0  0  0
 11 12  1  0  0  0  0
 11 13  1  0  0  0  0
 11 14  1  0  0  0  0
  9 10  1  0  0  0  0
  9 11  1  0  0  0  0
  9 16  1  0  0  0  0
  7  8  1  0  0  0  0
  7  9  1  0  0  0  0
 20 21  1  0  0  0  0
 20 22  1  0  0  0  0
 20 23  1  0  0  0  0
 18 19  1  0  0  0  0
 18 20  1  0  0  0  0
M  END
$$$$
default_name
  -OEChem-01062215323D

 23 22  0     1  0  0  0  0  0999 V2000
   -2.6721   -3.7279    0.7212 H   0  0  0  0  0  0  0  0  0  0  0  0
   -2.6561   -2.6819    0.4162 C   0  0  0  0  0  0  0  0  0  0  0  0
   -3.2401   -2.0889    1.1172 H   0  0  0  0  0  0  0  0  0  0  0  0
   -3.0671   -2.5859   -0.5858 H   0  0  0  0  0  0  0  0  0  0  0  0
   -1.2261   -2.1939    0.4202 C   0  0  0  0  0  0  0  0  0  0  0  0
   -0.3181   -2.9519    0.7312 O   0  0  0  0  0  0  0  0  0  0  0  0
   -1.0281   -0.9259    0.0662 N   0  0  0  0  0  0  0  0  0  0  0  0
   -1.8301   -0.3519   -0.1548 H   0  0  0  0  0  0  0  0  0  0  0  0
    0.2709   -0.2409    0.0912 C   0  0  1  0  0  0  0  0  0  0  0  0
    0.8777   -0.6089   -0.7364 H   0  0  0  0  0  0  0  0  0  0  0  0
    0.0696    1.2676   -0.1030 C   0  0  0  0  0  0  0  0  0  0  0  0
    1.0445    1.7509   -0.1857 H   0  0  0  0  0  0  0  0  0  0  0  0
   -0.4908    1.4455   -1.0225 H   0  0  0  0  0  0  0  0  0  0  0  0
   -0.6253    1.8298    0.9944 O   0  0  0  0  0  0  0  0  0  0  0  0
   -0.5784    2.7892    0.9214 H   0  0  0  0  0  0  0  0  0  0  0  0
    1.0169   -0.5450    1.4010 C   0  0  0  0  0  0  0  0  0  0  0  0
    2.2483   -0.5519    1.4217 O   0  0  0  0  0  0  0  0  0  0  0  0
    0.2823   -0.7835    2.4928 N   0  0  0  0  0  0  0  0  0  0  0  0
   -0.7181   -0.8482    2.3591 H   0  0  0  0  0  0  0  0  0  0  0  0
    0.8296   -1.0676    3.8180 C   0  0  0  0  0  0  0  0  0  0  0  0
    1.6342   -0.3646    4.0442 H   0  0  0  0  0  0  0  0  0  0  0  0
    0.0498   -0.9762    4.5745 H   0  0  0  0  0  0  0  0  0  0  0  0
    1.2357   -2.0811    3.8371 H   0  0  0  0  0  0  0  0  0  0  0  0
  5  6  2  0  0  0  0
  5  7  1  0  0  0  0
  2  3  1  0  0  0  0
  2  4  1  0  0  0  0
  2  5  1  0  0  0  0
  1  2  1  0  0  0  0
 16 17  2  0  0  0  0
 16 18  1  0  0  0  0
 14 15  1  0  0  0  0
 11 12  1  0  0  0  0
 11 13  1  0  0  0  0
 11 14  1  0  0  0  0
  9 10  1  0  0  0  0
  9 11  1  0  0  0  0
  9 16  1  0  0  0  0
  7  8  1  0  0  0  0
  7  9  1  0  0  0  0
 20 21  1  0  0  0  0
 20 22  1  0  0  0  0
 20 23  1  0  0  0  0
 18 19  1  0  0  0  0
 18 20  1  0  0  0  0
M  END
$$$$
default_name
  -OEChem-01062215323D

 23 22  0     1  0  0  0  0  0999 V2000
   -2.6721   -3.7279    0.7212 H   0  0  0  0  0  0  0  0  0  0  0  0
   -2.6561   -2.6819    0.4162 C   0  0  0  0  0  0  0  0  0  0  0  0
   -3.2401   -2.0889    1.1172 H   0  0  0  0  0  0  0  0  0  0  0  0
   -3.0671   -2.5859   -0.5858 H   0  0  0  0  0  0  0  0  0  0  0  0
   -1.2261   -2.1939    0.4202 C   0  0  0  0  0  0  0  0  0  0  0  0
   -0.3181   -2.9519    0.7312 O   0  0  0  0  0  0  0  0  0  0  0  0
   -1.0281   -0.9259    0.0662 N   0  0  0  0  0  0  0  0  0  0  0  0
   -1.8301   -0.3519   -0.1548 H   0  0  0  0  0  0  0  0  0  0  0  0
    0.2709   -0.2409    0.0912 C   0  0  1  0  0  0  0  0  0  0  0  0
    0.8777   -0.6089   -0.7364 H   0  0  0  0  0  0  0  0  0  0  0  0
    0.0696    1.2676   -0.1030 C   0  0  0  0  0  0  0  0  0  0  0  0
    1.0445    1.7509   -0.1857 H   0  0  0  0  0  0  0  0  0  0  0  0
   -0.4908    1.4455   -1.0225 H   0  0  0  0  0  0  0  0  0  0  0  0
   -0.6253    1.8298    0.9944 O   0  0  0  0  0  0  0  0  0  0  0  0
   -0.5784    2.7892    0.9214 H   0  0  0  0  0  0  0  0  0  0  0  0
    1.0169   -0.5450    1.4010 C   0  0  0  0  0  0  0  0  0  0  0  0
    2.2170   -0.2869    1.5010 O   0  0  0  0  0  0  0  0  0  0  0  0
    0.3144   -1.0786    2.4061 N   0  0  0  0  0  0  0  0  0  0  0  0
   -0.6406   -1.3409    2.2006 H   0  0  0  0  0  0  0  0  0  0  0  0
    0.8618   -1.4085    3.7205 C   0  0  0  0  0  0  0  0  0  0  0  0
    1.4797   -0.5835    4.0814 H   0  0  0  0  0  0  0  0  0  0  0  0
    0.0537   -1.5889    4.4300 H   0  0  0  0  0  0  0  0  0  0  0  0
    1.4833   -2.3031    3.6445 H   0  0  0  0  0  0  0  0  0  0  0  0
  5  6  2  0  0  0  0
  5  7  1  0  0  0  0
  2  3  1  0  0  0  0
  2  4  1  0  0  0  0
  2  5  1  0  0  0  0
  1  2  1  0  0  0  0
 16 17  2  0  0  0  0
 16 18  1  0  0  0  0
 14 15  1  0  0  0  0
 11 12  1  0  0  0  0
 11 13  1  0  0  0  0
 11 14  1  0  0  0  0
  9 10  1  0  0  0  0
  9 11  1  0  0  0  0
  9 16  1  0  0  0  0
  7  8  1  0  0  0  0
  7  9  1  0  0  0  0
 20 21  1  0  0  0  0
 20 22  1  0  0  0  0
 20 23  1  0  0  0  0
 18 19  1  0  0  0  0
 18 20  1  0  0  0  0
M  END
$$$$
default_name
  -OEChem-01062215323D

 23 22  0     1  0  0  0  0  0999 V2000
   -2.6721   -3.7279    0.7212 H   0  0  0  0  0  0  0  0  0  0  0  0
   -2.6561   -2.6819    0.4162 C   0  0  0  0  0  0  0  0  0  0  0  0
   -3.2401   -2.0889    1.1172 H   0  0  0  0  0  0  0  0  0  0  0  0
   -3.0671   -2.5859   -0.5858 H   0  0  0  0  0  0  0  0  0  0  0  0
   -1.2261   -2.1939    0.4202 C   0  0  0  0  0  0  0  0  0  0  0  0
   -0.3181   -2.9519    0.7312 O   0  0  0  0  0  0  0  0  0  0  0  0
   -1.0281   -0.9259    0.0662 N   0  0  0  0  0  0  0  0  0  0  0  0
   -1.8301   -0.3519   -0.1548 H   0  0  0  0  0  0  0  0  0  0  0  0
    0.2709   -0.2409    0.0912 C   0  0  1  0  0  0  0  0  0  0  0  0
    0.8777   -0.6089   -0.7364 H   0  0  0  0  0  0  0  0  0  0  0  0
    0.0696    1.2676   -0.1030 C   0  0  0  0  0  0  0  0  0  0  0  0
    1.0445    1.7509   -0.1857 H   0  0  0  0  0  0  0  0  0  0  0  0
   -0.4908    1.4455   -1.0225 H   0  0  0  0  0  0  0  0  0  0  0  0
   -0.6253    1.8298    0.9944 O   0  0  0  0  0  0  0  0  0  0  0  0
   -0.5784    2.7892    0.9214 H   0  0  0  0  0  0  0  0  0  0  0  0
    1.0169   -0.5450    1.4010 C   0  0  0  0  0  0  0  0  0  0  0  0
    2.1243   -0.0479    1.6093 O   0  0  0  0  0  0  0  0  0  0  0  0
    0.4148   -1.3457    2.2869 N   0  0  0  0  0  0  0  0  0  0  0  0
   -0.4490   -1.7799    1.9896 H   0  0  0  0  0  0  0  0  0  0  0  0
    0.9730   -1.7185    3.5852 C   0  0  0  0  0  0  0  0  0  0  0  0
    1.3768   -0.8337    4.0819 H   0  0  0  0  0  0  0  0  0  0  0  0
    0.2000   -2.1616    4.2138 H   0  0  0  0  0  0  0  0  0  0  0  0
    1.7812   -2.4389    3.4433 H   0  0  0  0  0  0  0  0  0  0  0  0
  5  6  2  0  0  0  0
  5  7  1  0  0  0  0
  2  3  1  0  0  0  0
  2  4  1  0  0  0  0
  2  5  1  0  0  0  0
  1  2  1  0  0  0  0
 16 17  2  0  0  0  0
 16 18  1  0  0  0  0
 14 15  1  0  0  0  0
 11 12  1  0  0  0  0
 11 13  1  0  0  0  0
 11 14  1  0  0  0  0
  9 10  1  0  0  0  0
  9 11  1  0  0  0  0
  9 16  1  0  0  0  0
  7  8  1  0  0  0  0
  7  9  1  0  0  0  0
 20 21  1  0  0  0  0
 20 22  1  0  0  0  0
 20 23  1  0  0  0  0
 18 19  1  0  0  0  0
 18 20  1  0  0  0  0
M  END
$$$$
default_name
  -OEChem-01062215323D

 23 22  0     1  0  0  0  0  0999 V2000
   -2.6721   -3.7279    0.7212 H   0  0  0  0  0  0  0  0  0  0  0  0
   -2.6561   -2.6819    0.4162 C   0  0  0  0  0  0  0  0  0  0  0  0
   -3.2401   -2.0889    1.1172 H   0  0  0  0  0  0  0  0  0  0  0  0
   -3.0671   -2.5859   -0.5858 H   0  0  0  0  0  0  0  0  0  0  0  0
   -1.2261   -2.1939    0.4202 C   0  0  0  0  0  0  0  0  0  0  0  0
   -0.3181   -2.9519    0.7312 O   0  0  0  0  0  0  0  0  0  0  0  0
   -1.0281   -0.9259    0.0662 N   0  0  0  0  0  0  0  0  0  0  0  0
   -1.8301   -0.3519   -0.1548 H   0  0  0  0  0  0  0  0  0  0  0  0
    0.2709   -0.2409    0.0912 C   0  0  1  0  0  0  0  0  0  0  0  0
    0.8777   -0.6089   -0.7364 H   0  0  0  0  0  0  0  0  0  0  0  0
    0.0696    1.2676   -0.1030 C   0  0  0  0  0  0  0  0  0  0  0  0
    1.0445    1.7509   -0.1857 H   0  0  0  0  0  0  0  0  0  0  0  0
   -0.4908    1.4455   -1.0225 H   0  0  0  0  0  0  0  0  0  0  0  0
   -0.6253    1.8298    0.9944 O   0  0  0  0  0  0  0  0  0  0  0  0
   -0.5784    2.7892    0.9214 H   0  0  0  0  0  0  0  0  0  0  0  0
    1.0169   -0.5450    1.4010 C   0  0  0  0  0  0  0  0  0  0  0  0
    1.9765    0.1490    1.7392 O   0  0  0  0  0  0  0  0  0  0  0  0
    0.5767   -1.5666    2.1433 N   0  0  0  0  0  0  0  0  0  0  0  0
   -0.1563   -2.1351    1.7404 H   0  0  0  0  0  0  0  0  0  0  0  0
    1.1556   -1.9764    3.4213 C   0  0  0  0  0  0  0  0  0  0  0  0
    1.3325   -1.0981    4.0457 H   0  0  0  0  0  0  0  0  0  0  0  0
    0.4786   -2.6555    3.9404 H   0  0  0  0  0  0  0  0  0  0  0  0
    2.1092   -2.4790    3.2471 H   0  0  0  0  0  0  0  0  0  0  0  0
  5  6  2  0  0  0  0
  5  7  1  0  0  0  0
  2  3  1  0  0  0  0
  2  4  1  0  0  0  0
  2  5  1  0  0  0  0
  1  2  1  0  0  0  0
 16 17  2  0  0  0  0
 16 18  1  0  0  0  0
 14 15  1  0  0  0  0
 11 12  1  0  0  0  0
 11 13  1  0  0  0  0
 11 14  1  0  0  0  0
  9 10  1  0  0  0  0
  9 11  1  0  0  0  0
  9 16  1  0  0  0  0
  7  8  1  0  0  0  0
  7  9  1  0  0  0  0
 20 21  1  0  0  0  0
 20 22  1  0  0  0  0
 20 23  1  0  0  0  0
 18 19  1  0  0  0  0
 18 20  1  0  0  0  0
M  END
$$$$
default_name
  -OEChem-01062215323D

 23 22  0     1  0  0  0  0  0999 V2000
   -2.6721   -3.7279    0.7212 H   0  0  0  0  0  0  0  0  0  0  0  0
   -2.6561   -2.6819    0.4162 C   0  0  0  0  0  0  0  0  0  0  0  0
   -3.2401   -2.0889    1.1172 H   0  0  0  0  0  0  0  0  0  0  0  0
   -3.0671   -2.5859   -0.5858 H   0  0  0  0  0  0  0  0  0  0  0  0
   -1.2261   -2.1939    0.4202 C   0  0  0  0  0  0  0  0  0  0  0  0
   -0.3181   -2.9519    0.7312 O   0  0  0  0  0  0  0  0  0  0  0  0
   -1.0281   -0.9259    0.0662 N   0  0  0  0  0  0  0  0  0  0  0  0
   -1.8301   -0.3519   -0.1548 H   0  0  0  0  0  0  0  0  0  0  0  0
    0.2709   -0.2409    0.0912 C   0  0  1  0  0  0  0  0  0  0  0  0
    0.8777   -0.6089   -0.7364 H   0  0  0  0  0  0  0  0  0  0  0  0
    0.0696    1.2676   -0.1030 C   0  0  0  0  0  0  0  0  0  0  0  0
    1.0445    1.7509   -0.1857 H   0  0  0  0  0  0  0  0  0  0  0  0
   -0.4908    1.4455   -1.0225 H   0  0  0  0  0  0  0  0  0  0  0  0
   -0.6253    1.8298    0.9944 O   0  0  0  0  0  0  0  0  0  0  0  0
   -0.5784    2.7892    0.9214 H   0  0  0  0  0  0  0  0  0  0  0  0
    1.0169   -0.5450    1.4010 C   0  0  0  0  0  0  0  0  0  0  0  0
    1.7837    0.2903    1.8818 O   0  0  0  0  0  0  0  0  0  0  0  0
    0.7892   -1.7262    1.9852 N   0  0  0  0  0  0  0  0  0  0  0  0
    0.2174   -2.3824    1.4701 H   0  0  0  0  0  0  0  0  0  0  0  0
    1.3973   -2.1647    3.2399 C   0  0  0  0  0  0  0  0  0  0  0  0
    1.3500   -1.3587    3.9753 H   0  0  0  0  0  0  0  0  0  0  0  0
    0.8706   -3.0367    3.6286 H   0  0  0  0  0  0  0  0  0  0  0  0
    2.4450   -2.4209    3.0694 H   0  0  0  0  0  0  0  0  0  0  0  0
  5  6  2  0  0  0  0
  5  7  1  0  0  0  0
  2  3  1  0  0  0  0
  2  4  1  0  0  0  0
  2  5  1  0  0  0  0
  1  2  1  0  0  0  0
 16 17  2  0  0  0  0
 16 18  1  0  0  0  0
 14 15  1  0  0  0  0
 11 12  1  0  0  0  0
 11 13  1  0  0  0  0
 11 14  1  0  0  0  0
  9 10  1  0  0  0  0
  9 11  1  0  0  0  0
  9 16  1  0  0  0  0
  7  8  1  0  0  0  0
  7  9  1  0  0  0  0
 20 21  1  0  0  0  0
 20 22  1  0  0  0  0
 20 23  1  0  0  0  0
 18 19  1  0  0  0  0
 18 20  1  0  0  0  0
M  END
$$$$
default_name
  -OEChem-01062215323D

 23 22  0     1  0  0  0  0  0999 V2000
   -2.6721   -3.7279    0.7212 H   0  0  0  0  0  0  0  0  0  0  0  0
   -2.6561   -2.6819    0.4162 C   0  0  0  0  0  0  0  0  0  0  0  0
   -3.2401   -2.0889    1.1172 H   0  0  0  0  0  0  0  0  0  0  0  0
   -3.0671   -2.5859   -0.5858 H   0  0  0  0  0  0  0  0  0  0  0  0
   -1.2261   -2.1939    0.4202 C   0  0  0  0  0  0  0  0  0  0  0  0
   -0.3181   -2.9519    0.7312 O   0  0  0  0  0  0  0  0  0  0  0  0
   -1.0281   -0.9259    0.0662 N   0  0  0  0  0  0  0  0  0  0  0  0
   -1.8301   -0.3519   -0.1548 H   0  0  0  0  0  0  0  0  0  0  0  0
    0.2709   -0.2409    0.0912 C   0  0  1  0  0  0  0  0  0  0  0  0
    0.8777   -0.6089   -0.7364 H   0  0  0  0  0  0  0  0  0  0  0  0
    0.0696    1.2676   -0.1030 C   0  0  0  0  0  0  0  0  0  0  0  0
    1.0445    1.7509   -0.1857 H   0  0  0  0  0  0  0  0  0  0  0  0
   -0.4908    1.4455   -1.0225 H   0  0  0  0  0  0  0  0  0  0  0  0
   -0.6253    1.8298    0.9944 O   0  0  0  0  0  0  0  0  0  0  0  0
   -0.5784    2.7892    0.9214 H   0  0  0  0  0  0  0  0  0  0  0  0
    1.0169   -0.5450    1.4010 C   0  0  0  0  0  0  0  0  0  0  0  0
    1.5590    0.3663    2.0275 O   0  0  0  0  0  0  0  0  0  0  0  0
    1.0378   -1.8137    1.8233 N   0  0  0  0  0  0  0  0  0  0  0  0
    0.6467   -2.5050    1.1971 H   0  0  0  0  0  0  0  0  0  0  0  0
    1.6815   -2.2705    3.0534 C   0  0  0  0  0  0  0  0  0  0  0  0
    1.4278   -1.5978    3.8754 H   0  0  0  0  0  0  0  0  0  0  0  0
    1.3492   -3.2794    3.2997 H   0  0  0  0  0  0  0  0  0  0  0  0
    2.7656   -2.2684    2.9222 H   0  0  0  0  0  0  0  0  0  0  0  0
  5  6  2  0  0  0  0
  5  7  1  0  0  0  0
  2  3  1  0  0  0  0
  2  4  1  0  0  0  0
  2  5  1  0  0  0  0
  1  2  1  0  0  0  0
 16 17  2  0  0  0  0
 16 18  1  0  0  0  0
 14 15  1  0  0  0  0
 11 12  1  0  0  0  0
 11 13  1  0  0  0  0
 11 14  1  0  0  0  0
  9 10  1  0  0  0  0
  9 11  1  0  0  0  0
  9 16  1  0  0  0  0
  7  8  1  0  0  0  0
  7  9  1  0  0  0  0
 20 21  1  0  0  0  0
 20 22  1  0  0  0  0
 20 23  1  0  0  0  0
 18 19  1  0  0  0  0
 18 20  1  0  0  0  0
M  END
$$$$
default_name
  -OEChem-01062215323D

 23 22  0     1  0  0  0  0  0999 V2000
   -2.6721   -3.7279    0.7212 H   0  0  0  0  0  0  0  0  0  0  0  0
   -2.6561   -2.6819    0.4162 C   0  0  0  0  0  0  0  0  0  0  0  0
   -3.2401   -2.0889    1.1172 H   0  0  0  0  0  0  0  0  0  0  0  0
   -3.0671   -2.5859   -0.5858 H   0  0  0  0  0  0  0  0  0  0  0  0
   -1.2261   -2.1939    0.4202 C   0  0  0  0  0  0  0  0  0  0  0  0
   -0.3181   -2.9519    0.7312 O   0  0  0  0  0  0  0  0  0  0  0  0
   -1.0281   -0.9259    0.0662 N   0  0  0  0  0  0  0  0  0  0  0  0
   -1.8301   -0.3519   -0.1548 H   0  0  0  0  0  0  0  0  0  0  0  0
    0.2709   -0.2409    0.0912 C   0  0  1  0  0  0  0  0  0  0  0  0
    0.8777   -0.6089   -0.7364 H   0  0  0  0  0  0  0  0  0  0  0  0
    0.0696    1.2676   -0.1030 C   0  0  0  0  0  0  0  0  0  0  0  0
    1.0445    1.7509   -0.1857 H   0  0  0  0  0  0  0  0  0  0  0  0
   -0.4908    1.4455   -1.0225 H   0  0  0  0  0  0  0  0  0  0  0  0
   -0.6253    1.8298    0.9944 O   0  0  0  0  0  0  0  0  0  0  0  0
   -0.5784    2.7892    0.9214 H   0  0  0  0  0  0  0  0  0  0  0  0
    1.0169   -0.5450    1.4010 C   0  0  0  0  0  0  0  0  0  0  0  0
    1.3178    0.3720    2.1662 O   0  0  0  0  0  0  0  0  0  0  0  0
    1.3054   -1.8231    1.6687 N   0  0  0  0  0  0  0  0  0  0  0  0
    1.1024   -2.4944    0.9400 H   0  0  0  0  0  0  0  0  0  0  0  0
    1.9890   -2.2867    2.8746 C   0  0  0  0  0  0  0  0  0  0  0  0
    1.5608   -1.7990    3.7530 H   0  0  0  0  0  0  0  0  0  0  0  0
    1.8819   -3.3670    2.9759 H   0  0  0  0  0  0  0  0  0  0  0  0
    3.0492   -2.0319    2.8156 H   0  0  0  0  0  0  0  0  0  0  0  0
  5  6  2  0  0  0  0
  5  7  1  0  0  0  0
  2  3  1  0  0  0  0
  2  4  1  0  0  0  0
  2  5  1  0  0  0  0
  1  2  1  0  0  0  0
 16 17  2  0  0  0  0
 16 18  1  0  0  0  0
 14 15  1  0  0  0  0
 11 12  1  0  0  0  0
 11 13  1  0  0  0  0
 11 14  1  0  0  0  0
  9 10  1  0  0  0  0
  9 11  1  0  0  0  0
  9 16  1  0  0  0  0
  7  8  1  0  0  0  0
  7  9  1  0  0  0  0
 20 21  1  0  0  0  0
 20 22  1  0  0  0  0
 20 23  1  0  0  0  0
 18 19  1  0  0  0  0
 18 20  1  0  0  0  0
M  END
$$$$
default_name
  -OEChem-01062215323D

 23 22  0     1  0  0  0  0  0999 V2000
   -2.6721   -3.7279    0.7212 H   0  0  0  0  0  0  0  0  0  0  0  0
   -2.6561   -2.6819    0.4162 C   0  0  0  0  0  0  0  0  0  0  0  0
   -3.2401   -2.0889    1.1172 H   0  0  0  0  0  0  0  0  0  0  0  0
   -3.0671   -2.5859   -0.5858 H   0  0  0  0  0  0  0  0  0  0  0  0
   -1.2261   -2.1939    0.4202 C   0  0  0  0  0  0  0  0  0  0  0  0
   -0.3181   -2.9519    0.7312 O   0  0  0  0  0  0  0  0  0  0  0  0
   -1.0281   -0.9259    0.0662 N   0  0  0  0  0  0  0  0  0  0  0  0
   -1.8301   -0.3519   -0.1548 H   0  0  0  0  0  0  0  0  0  0  0  0
    0.2709   -0.2409    0.0912 C   0  0  1  0  0  0  0  0  0  0  0  0
    0.8777   -0.6089   -0.7364 H   0  0  0  0  0  0  0  0  0  0  0  0
    0.0696    1.2676   -0.1030 C   0  0  0  0  0  0  0  0  0  0  0  0
    1.0445    1.7509   -0.1857 H   0  0  0  0  0  0  0  0  0  0  0  0
   -0.4908    1.4455   -1.0225 H   0  0  0  0  0  0  0  0  0  0  0  0
   -0.6253    1.8298    0.9944 O   0  0  0  0  0  0  0  0  0  0  0  0
   -0.5784    2.7892    0.9214 H   0  0  0  0  0  0  0  0  0  0  0  0
    1.0169   -0.5450    1.4010 C   0  0  0  0  0  0  0  0  0  0  0  0
    1.0764    0.3068    2.2885 O   0  0  0  0  0  0  0  0  0  0  0  0
    1.5739   -1.7538    1.5319 N   0  0  0  0  0  0  0  0  0  0  0  0
    1.5535   -2.3515    0.7163 H   0  0  0  0  0  0  0  0  0  0  0  0
    2.2986   -2.2120    2.7155 C   0  0  0  0  0  0  0  0  0  0  0  0
    1.7400   -1.9486    3.6162 H   0  0  0  0  0  0  0  0  0  0  0  0
    2.4323   -3.2936    2.6795 H   0  0  0  0  0  0  0  0  0  0  0  0
    3.2764   -1.7276    2.7568 H   0  0  0  0  0  0  0  0  0  0  0  0
  5  6  2  0  0  0  0
  5  7  1  0  0  0  0
  2  3  1  0  0  0  0
  2  4  1  0  0  0  0
  2  5  1  0  0  0  0
  1  2  1  0  0  0  0
 16 17  2  0  0  0  0
 16 18  1  0  0  0  0
 14 15  1  0  0  0  0
 11 12  1  0  0  0  0
 11 13  1  0  0  0  0
 11 14  1  0  0  0  0
  9 10  1  0  0  0  0
  9 11  1  0  0  0  0
  9 16  1  0  0  0  0
  7  8  1  0  0  0  0
  7  9  1  0  0  0  0
 20 21  1  0  0  0  0
 20 22  1  0  0  0  0
 20 23  1  0  0  0  0
 18 19  1  0  0  0  0
 18 20  1  0  0  0  0
M  END
$$$$
default_name
  -OEChem-01062215323D

 23 22  0     1  0  0  0  0  0999 V2000
   -2.6721   -3.7279    0.7212 H   0  0  0  0  0  0  0  0  0  0  0  0
   -2.6561   -2.6819    0.4162 C   0  0  0  0  0  0  0  0  0  0  0  0
   -3.2401   -2.0889    1.1172 H   0  0  0  0  0  0  0  0  0  0  0  0
   -3.0671   -2.5859   -0.5858 H   0  0  0  0  0  0  0  0  0  0  0  0
   -1.2261   -2.1939    0.4202 C   0  0  0  0  0  0  0  0  0  0  0  0
   -0.3181   -2.9519    0.7312 O   0  0  0  0  0  0  0  0  0  0  0  0
   -1.0281   -0.9259    0.0662 N   0  0  0  0  0  0  0  0  0  0  0  0
   -1.8301   -0.3519   -0.1548 H   0  0  0  0  0  0  0  0  0  0  0  0
    0.2709   -0.2409    0.0912 C   0  0  1  0  0  0  0  0  0  0  0  0
    0.8777   -0.6089   -0.7364 H   0  0  0  0  0  0  0  0  0  0  0  0
    0.0696    1.2676   -0.1030 C   0  0  0  0  0  0  0  0  0  0  0  0
    1.0445    1.7509   -0.1857 H   0  0  0  0  0  0  0  0  0  0  0  0
   -0.4908    1.4455   -1.0225 H   0  0  0  0  0  0  0  0  0  0  0  0
   -0.6253    1.8298    0.9944 O   0  0  0  0  0  0  0  0  0  0  0  0
   -0.5784    2.7892    0.9214 H   0  0  0  0  0  0  0  0  0  0  0  0
    1.0169   -0.5450    1.4010 C   0  0  0  0  0  0  0  0  0  0  0  0
    0.8514    0.1753    2.3862 O   0  0  0  0  0  0  0  0  0  0  0  0
    1.8250   -1.6104    1.4222 N   0  0  0  0  0  0  0  0  0  0  0  0
    1.9690   -2.0859    0.5412 H   0  0  0  0  0  0  0  0  0  0  0  0
    2.5894   -2.0517    2.5871 C   0  0  0  0  0  0  0  0  0  0  0  0
    1.9530   -2.0365    3.4745 H   0  0  0  0  0  0  0  0  0  0  0  0
    2.9629   -3.0641    2.4305 H   0  0  0  0  0  0  0  0  0  0  0  0
    3.4318   -1.3762    2.7499 H   0  0  0  0  0  0  0  0  0  0  0  0
  5  6  2  0  0  0  0
  5  7  1  0  0  0  0
  2  3  1  0  0  0  0
  2  4  1  0  0  0  0
  2  5  1  0  0  0  0
  1  2  1  0  0  0  0
 16 17  2  0  0  0  0
 16 18  1  0  0  0  0
 14 15  1  0  0  0  0
 11 12  1  0  0  0  0
 11 13  1  0  0  0  0
 11 14  1  0  0  0  0
  9 10  1  0  0  0  0
  9 11  1  0  0  0  0
  9 16  1  0  0  0  0
  7  8  1  0  0  0  0
  7  9  1  0  0  0  0
 20 21  1  0  0  0  0
 20 22  1  0  0  0  0
 20 23  1  0  0  0  0
 18 19  1  0  0  0  0
 18 20  1  0  0  0  0
M  END
$$$$
default_name
  -OEChem-01062215323D

 23 22  0     1  0  0  0  0  0999 V2000
   -2.6721   -3.7279    0.7212 H   0  0  0  0  0  0  0  0  0  0  0  0
   -2.6561   -2.6819    0.4162 C   0  0  0  0  0  0  0  0  0  0  0  0
   -3.2401   -2.0889    1.1172 H   0  0  0  0  0  0  0  0  0  0  0  0
   -3.0671   -2.5859   -0.5858 H   0  0  0  0  0  0  0  0  0  0  0  0
   -1.2261   -2.1939    0.4202 C   0  0  0  0  0  0  0  0  0  0  0  0
   -0.3181   -2.9519    0.7312 O   0  0  0  0  0  0  0  0  0  0  0  0
   -1.0281   -0.9259    0.0662 N   0  0  0  0  0  0  0  0  0  0  0  0
   -1.8301   -0.3519   -0.1548 H   0  0  0  0  0  0  0  0  0  0  0  0
    0.2709   -0.2409    0.0912 C   0  0  1  0  0  0  0  0  0  0  0  0
    0.8777   -0.6089   -0.7364 H   0  0  0  0  0  0  0  0  0  0  0  0
    0.0696    1.2676   -0.1030 C   0  0  0  0  0  0  0  0  0  0  0  0
    1.0445    1.7509   -0.1857 H   0  0  0  0  0  0  0  0  0  0  0  0
   -0.4908    1.4455   -1.0225 H   0  0  0  0  0  0  0  0  0  0  0  0
   -0.6253    1.8298    0.9944 O   0  0  0  0  0  0  0  0  0  0  0  0
   -0.5784    2.7892    0.9214 H   0  0  0  0  0  0  0  0  0  0  0  0
    1.0169   -0.5450    1.4010 C   0  0  0  0  0  0  0  0  0  0  0  0
    0.6580   -0.0136    2.4525 O   0  0  0  0  0  0  0  0  0  0  0  0
    2.0415   -1.4028    1.3470 N   0  0  0  0  0  0  0  0  0  0  0  0
    2.3209   -1.7158    0.4268 H   0  0  0  0  0  0  0  0  0  0  0  0
    2.8415   -1.8166    2.4981 C   0  0  0  0  0  0  0  0  0  0  0  0
    2.1853   -2.0566    3.3374 H   0  0  0  0  0  0  0  0  0  0  0  0
    3.4376   -2.6942    2.2460 H   0  0  0  0  0  0  0  0  0  0  0  0
    3.5048   -1.0016    2.7952 H   0  0  0  0  0  0  0  0  0  0  0  0
  5  6  2  0  0  0  0
  5  7  1  0  0  0  0
  2  3  1  0  0  0  0
  2  4  1  0  0  0  0
  2  5  1  0  0  0  0
  1  2  1  0  0  0  0
 16 17  2  0  0  0  0
 16 18  1  0  0  0  0
 14 15  1  0  0  0  0
 11 12  1  0  0  0  0
 11 13  1  0  0  0  0
 11 14  1  0  0  0  0
  9 10  1  0  0  0  0
  9 11  1  0  0  0  0
  9 16  1  0  0  0  0
  7  8  1  0  0  0  0
  7  9  1  0  0  0  0
 20 21  1  0  0  0  0
 20 22  1  0  0  0  0
 20 23  1  0  0  0  0
 18 19  1  0  0  0  0
 18 20  1  0  0  0  0
M  END
$$$$
default_name
  -OEChem-01062215323D

 23 22  0     1  0  0  0  0  0999 V2000
   -2.6721   -3.7279    0.7212 H   0  0  0  0  0  0  0  0  0  0  0  0
   -2.6561   -2.6819    0.4162 C   0  0  0  0  0  0  0  0  0  0  0  0
   -3.2401   -2.0889    1.1172 H   0  0  0  0  0  0  0  0  0  0  0  0
   -3.0671   -2.5859   -0.5858 H   0  0  0  0  0  0  0  0  0  0  0  0
   -1.2261   -2.1939    0.4202 C   0  0  0  0  0  0  0  0  0  0  0  0
   -0.3181   -2.9519    0.7312 O   0  0  0  0  0  0  0  0  0  0  0  0
   -1.0281   -0.9259    0.0662 N   0  0  0  0  0  0  0  0  0  0  0  0
   -1.8301   -0.3519   -0.1548 H   0  0  0  0  0  0  0  0  0  0  0  0
    0.2709   -0.2409    0.0912 C   0  0  1  0  0  0  0  0  0  0  0  0
    0.8777   -0.6089   -0.7364 H   0  0  0  0  0  0  0  0  0  0  0  0
    0.0696    1.2676   -0.1030 C   0  0  0  0  0  0  0  0  0  0  0  0
    1.0445    1.7509   -0.1857 H   0  0  0  0  0  0  0  0  0  0  0  0
   -0.4908    1.4455   -1.0225 H   0  0  0  0  0  0  0  0  0  0  0  0
   -0.6253    1.8298    0.9944 O   0  0  0  0  0  0  0  0  0  0  0  0
   -0.5784    2.7892    0.9214 H   0  0  0  0  0  0  0  0  0  0  0  0
    1.0169   -0.5450    1.4010 C   0  0  0  0  0  0  0  0  0  0  0  0
    0.5094   -0.2470    2.4829 O   0  0  0  0  0  0  0  0  0  0  0  0
    2.2087   -1.1451    1.3116 N   0  0  0  0  0  0  0  0  0  0  0  0
    2.5850   -1.2663    0.3807 H   0  0  0  0  0  0  0  0  0  0  0  0
    3.0378   -1.5227    2.4545 C   0  0  0  0  0  0  0  0  0  0  0  0
    2.4213   -2.0076    3.2144 H   0  0  0  0  0  0  0  0  0  0  0  0
    3.8240   -2.2090    2.1386 H   0  0  0  0  0  0  0  0  0  0  0  0
    3.4904   -0.6294    2.8898 H   0  0  0  0  0  0  0  0  0  0  0  0
  5  6  2  0  0  0  0
  5  7  1  0  0  0  0
  2  3  1  0  0  0  0
  2  4  1  0  0  0  0
  2  5  1  0  0  0  0
  1  2  1  0  0  0  0
 16 17  2  0  0  0  0
 16 18  1  0  0  0  0
 14 15  1  0  0  0  0
 11 12  1  0  0  0  0
 11 13  1  0  0  0  0
 11 14  1  0  0  0  0
  9 10  1  0  0  0  0
  9 11  1  0  0  0  0
  9 16  1  0  0  0  0
  7  8  1  0  0  0  0
  7  9  1  0  0  0  0
 20 21  1  0  0  0  0
 20 22  1  0  0  0  0
 20 23  1  0  0  0  0
 18 19  1  0  0  0  0
 18 20  1  0  0  0  0
M  END
$$$$
default_name
  -OEChem-01062215323D

 23 22  0     1  0  0  0  0  0999 V2000
   -2.6721   -3.7279    0.7212 H   0  0  0  0  0  0  0  0  0  0  0  0
   -2.6561   -2.6819    0.4162 C   0  0  0  0  0  0  0  0  0  0  0  0
   -3.2401   -2.0889    1.1172 H   0  0  0  0  0  0  0  0  0  0  0  0
   -3.0671   -2.5859   -0.5858 H   0  0  0  0  0  0  0  0  0  0  0  0
   -1.2261   -2.1939    0.4202 C   0  0  0  0  0  0  0  0  0  0  0  0
   -0.3181   -2.9519    0.7312 O   0  0  0  0  0  0  0  0  0  0  0  0
   -1.0281   -0.9259    0.0662 N   0  0  0  0  0  0  0  0  0  0  0  0
   -1.8301   -0.3519   -0.1548 H   0  0  0  0  0  0  0  0  0  0  0  0
    0.2709   -0.2409    0.0912 C   0  0  1  0  0  0  0  0  0  0  0  0
    0.8777   -0.6089   -0.7364 H   0  0  0  0  0  0  0  0  0  0  0  0
    0.0696    1.2676   -0.1030 C   0  0  0  0  0  0  0  0  0  0  0  0
    1.0445    1.7509   -0.1857 H   0  0  0  0  0  0  0  0  0  0  0  0
   -0.4908    1.4455   -1.0225 H   0  0  0  0  0  0  0  0  0  0  0  0
   -0.6253    1.8298    0.9944 O   0  0  0  0  0  0  0  0  0  0  0  0
   -0.5784    2.7892    0.9214 H   0  0  0  0  0  0  0  0  0  0  0  0
    1.0169   -0.5450    1.4010 C   0  0  0  0  0  0  0  0  0  0  0  0
    0.4159   -0.5091    2.4753 O   0  0  0  0  0  0  0  0  0  0  0  0
    2.3153   -0.8549    1.3183 N   0  0  0  0  0  0  0  0  0  0  0  0
    2.7434   -0.7682    0.4061 H   0  0  0  0  0  0  0  0  0  0  0  0
    3.1648   -1.1902    2.4594 C   0  0  0  0  0  0  0  0  0  0  0  0
    2.6446   -1.8929    3.1138 H   0  0  0  0  0  0  0  0  0  0  0  0
    4.0958   -1.6417    2.1155 H   0  0  0  0  0  0  0  0  0  0  0  0
    3.3896   -0.2849    3.0272 H   0  0  0  0  0  0  0  0  0  0  0  0
  5  6  2  0  0  0  0
  5  7  1  0  0  0  0
  2  3  1  0  0  0  0
  2  4  1  0  0  0  0
  2  5  1  0  0  0  0
  1  2  1  0  0  0  0
 16 17  2  0  0  0  0
 16 18  1  0  0  0  0
 14 15  1  0  0  0  0
 11 12  1  0  0  0  0
 11 13  1  0  0  0  0
 11 14  1  0  0  0  0
  9 10  1  0  0  0  0
  9 11  1  0  0  0  0
  9 16  1  0  0  0  0
  7  8  1  0  0  0  0
  7  9  1  0  0  0  0
 20 21  1  0  0  0  0
 20 22  1  0  0  0  0
 20 23  1  0  0  0  0
 18 19  1  0  0  0  0
 18 20  1  0  0  0  0
M  END
$$$$
default_name
  -OEChem-01062215323D

 23 22  0     1  0  0  0  0  0999 V2000
   -2.6721   -3.7279    0.7212 H   0  0  0  0  0  0  0  0  0  0  0  0
   -2.6561   -2.6819    0.4162 C   0  0  0  0  0  0  0  0  0  0  0  0
   -3.2401   -2.0889    1.1172 H   0  0  0  0  0  0  0  0  0  0  0  0
   -3.0671   -2.5859   -0.5858 H   0  0  0  0  0  0  0  0  0  0  0  0
   -1.2261   -2.1939    0.4202 C   0  0  0  0  0  0  0  0  0  0  0  0
   -0.3181   -2.9519    0.7312 O   0  0  0  0  0  0  0  0  0  0  0  0
   -1.0281   -0.9259    0.0662 N   0  0  0  0  0  0  0  0  0  0  0  0
   -1.8301   -0.3519   -0.1548 H   0  0  0  0  0  0  0  0  0  0  0  0
    0.2709   -0.2409    0.0912 C   0  0  1  0  0  0  0  0  0  0  0  0
    0.8777   -0.6089   -0.7364 H   0  0  0  0  0  0  0  0  0  0  0  0
    0.0696    1.2676   -0.1030 C   0  0  0  0  0  0  0  0  0  0  0  0
    1.0445    1.7509   -0.1857 H   0  0  0  0  0  0  0  0  0  0  0  0
   -0.4908    1.4455   -1.0225 H   0  0  0  0  0  0  0  0  0  0  0  0
   -0.6253    1.8298    0.9944 O   0  0  0  0  0  0  0  0  0  0  0  0
   -0.5784    2.7892    0.9214 H   0  0  0  0  0  0  0  0  0  0  0  0
    1.0169   -0.5450    1.4010 C   0  0  0  0  0  0  0  0  0  0  0  0
    0.3836   -0.7819    2.4304 O   0  0  0  0  0  0  0  0  0  0  0  0
    2.3538   -0.5519    1.3667 N   0  0  0  0  0  0  0  0  0  0  0  0
    2.7853   -0.2553    0.5014 H   0  0  0  0  0  0  0  0  0  0  0  0
    3.2139   -0.8415    2.5124 C   0  0  0  0  0  0  0  0  0  0  0  0
    2.8402   -1.7201    3.0425 H   0  0  0  0  0  0  0  0  0  0  0  0
    4.2344   -1.0310    2.1783 H   0  0  0  0  0  0  0  0  0  0  0  0
    3.2093    0.0083    3.1980 H   0  0  0  0  0  0  0  0  0  0  0  0
  5  6  2  0  0  0  0
  5  7  1  0  0  0  0
  2  3  1  0  0  0  0
  2  4  1  0  0  0  0
  2  5  1  0  0  0  0
  1  2  1  0  0  0  0
 16 17  2  0  0  0  0
 16 18  1  0  0  0  0
 14 15  1  0  0  0  0
 11 12  1  0  0  0  0
 11 13  1  0  0  0  0
 11 14  1  0  0  0  0
  9 10  1  0  0  0  0
  9 11  1  0  0  0  0
  9 16  1  0  0  0  0
  7  8  1  0  0  0  0
  7  9  1  0  0  0  0
 20 21  1  0  0  0  0
 20 22  1  0  0  0  0
 20 23  1  0  0  0  0
 18 19  1  0  0  0  0
 18 20  1  0  0  0  0
M  END
$$$$
default_name
  -OEChem-01062215323D

 23 22  0     1  0  0  0  0  0999 V2000
   -2.6721   -3.7279    0.7212 H   0  0  0  0  0  0  0  0  0  0  0  0
   -2.6561   -2.6819    0.4162 C   0  0  0  0  0  0  0  0  0  0  0  0
   -3.2401   -2.0889    1.1172 H   0  0  0  0  0  0  0  0  0  0  0  0
   -3.0671   -2.5859   -0.5858 H   0  0  0  0  0  0  0  0  0  0  0  0
   -1.2261   -2.1939    0.4202 C   0  0  0  0  0  0  0  0  0  0  0  0
   -0.3181   -2.9519    0.7312 O   0  0  0  0  0  0  0  0  0  0  0  0
   -1.0281   -0.9259    0.0662 N   0  0  0  0  0  0  0  0  0  0  0  0
   -1.8301   -0.3519   -0.1548 H   0  0  0  0  0  0  0  0  0  0  0  0
    0.2709   -0.2409    0.0912 C   0  0  1  0  0  0  0  0  0  0  0  0
    0.8777   -0.6089   -0.7364 H   0  0  0  0  0  0  0  0  0  0  0  0
    0.0696    1.2676   -0.1030 C   0  0  0  0  0  0  0  0  0  0  0  0
    1.0445    1.7509   -0.1857 H   0  0  0  0  0  0  0  0  0  0  0  0
   -0.4908    1.4455   -1.0225 H   0  0  0  0  0  0  0  0  0  0  0  0
   -0.6253    1.8298    0.9944 O   0  0  0  0  0  0  0  0  0  0  0  0
   -0.5784    2.7892    0.9214 H   0  0  0  0  0  0  0  0  0  0  0  0
    1.0169   -0.5450    1.4010 C   0  0  0  0  0  0  0  0  0  0  0  0
    0.4149   -1.0468    2.3510 O   0  0  0  0  0  0  0  0  0  0  0  0
    2.3218   -0.2568    1.4534 N   0  0  0  0  0  0  0  0  0  0  0  0
    2.7077    0.2374    0.6599 H   0  0  0  0  0  0  0  0  0  0  0  0
    3.1818   -0.5006    2.6098 C   0  0  0  0  0  0  0  0  0  0  0  0
    2.9947   -1.5012    3.0054 H   0  0  0  0  0  0  0  0  0  0  0  0
    4.2305   -0.4183    2.3228 H   0  0  0  0  0  0  0  0  0  0  0  0
    2.9617    0.2304    3.3906 H   0  0  0  0  0  0  0  0  0  0  0  0
  5  6  2  0  0  0  0
  5  7  1  0  0  0  0
  2  3  1  0  0  0  0
  2  4  1  0  0  0  0
  2  5  1  0  0  0  0
  1  2  1  0  0  0  0
 16 17  2  0  0  0  0
 16 18  1  0  0  0  0
 14 15  1  0  0  0  0
 11 12  1  0  0  0  0
 11 13  1  0  0  0  0
 11 14  1  0  0  0  0
  9 10  1  0  0  0  0
  9 11  1  0  0  0  0
  9 16  1  0  0  0  0
  7  8  1  0  0  0  0
  7  9  1  0  0  0  0
 20 21  1  0  0  0  0
 20 22  1  0  0  0  0
 20 23  1  0  0  0  0
 18 19  1  0  0  0  0
 18 20  1  0  0  0  0
M  END
$$$$
default_name
  -OEChem-01062215323D

 23 22  0     1  0  0  0  0  0999 V2000
   -2.6721   -3.7279    0.7212 H   0  0  0  0  0  0  0  0  0  0  0  0
   -2.6561   -2.6819    0.4162 C   0  0  0  0  0  0  0  0  0  0  0  0
   -3.2401   -2.0889    1.1172 H   0  0  0  0  0  0  0  0  0  0  0  0
   -3.0671   -2.5859   -0.5858 H   0  0  0  0  0  0  0  0  0  0  0  0
   -1.2261   -2.1939    0.4202 C   0  0  0  0  0  0  0  0  0  0  0  0
   -0.3181   -2.9519    0.7312 O   0  0  0  0  0  0  0  0  0  0  0  0
   -1.0281   -0.9259    0.0662 N   0  0  0  0  0  0  0  0  0  0  0  0
   -1.8301   -0.3519   -0.1548 H   0  0  0  0  0  0  0  0  0  0  0  0
    0.2709   -0.2409    0.0912 C   0  0  1  0  0  0  0  0  0  0  0  0
    0.7693   -0.3987   -0.8655 H   0  0  0  0  0  0  0  0  0  0  0  0
    0.0621    1.2681    0.2735 C   0  0  0  0  0  0  0  0  0  0  0  0
    1.0245    1.7754    0.1872 H   0  0  0  0  0  0  0  0  0  0  0  0
   -0.6039    1.6411   -0.5066 H   0  0  0  0  0  0  0  0  0  0  0  0
   -0.4892    1.5515    1.5459 O   0  0  0  0  0  0  0  0  0  0  0  0
   -0.4422    2.5029    1.6896 H   0  0  0  0  0  0  0  0  0  0  0  0
    1.1672   -0.8226    1.1970 C   0  0  0  0  0  0  0  0  0  0  0  0
    0.7566   -1.7455    1.9015 O   0  0  0  0  0  0  0  0  0  0  0  0
    2.3890   -0.2991    1.3453 N   0  0  0  0  0  0  0  0  0  0  0  0
    2.6029    0.5150    0.7847 H   0  0  0  0  0  0  0  0  0  0  0  0
    3.3720   -0.7471    2.3297 C   0  0  0  0  0  0  0  0  0  0  0  0
    3.4201   -1.8381    2.3343 H   0  0  0  0  0  0  0  0  0  0  0  0
    4.3565   -0.3454    2.0879 H   0  0  0  0  0  0  0  0  0  0  0  0
    3.0762   -0.4062    3.3241 H   0  0  0  0  0  0  0  0  0  0  0  0
  5  6  2  0  0  0  0
  5  7  1  0  0  0  0
  2  3  1  0  0  0  0
  2  4  1  0  0  0  0
  2  5  1  0  0  0  0
  1  2  1  0  0  0  0
 16 17  2  0  0  0  0
 16 18  1  0  0  0  0
 14 15  1  0  0  0  0
 11 12  1  0  0  0  0
 11 13  1  0  0  0  0
 11 14  1  0  0  0  0
  9 10  1  0  0  0  0
  9 11  1  0  0  0  0
  9 16  1  0  0  0  0
  7  8  1  0  0  0  0
  7  9  1  0  0  0  0
 20 21  1  0  0  0  0
 20 22  1  0  0  0  0
 20 23  1  0  0  0  0
 18 19  1  0  0  0  0
 18 20  1  0  0  0  0
M  END
$$$$
default_name
  -OEChem-01062215323D

 23 22  0     1  0  0  0  0  0999 V2000
   -2.6721   -3.7279    0.7212 H   0  0  0  0  0  0  0  0  0  0  0  0
   -2.6561   -2.6819    0.4162 C   0  0  0  0  0  0  0  0  0  0  0  0
   -3.2401   -2.0889    1.1172 H   0  0  0  0  0  0  0  0  0  0  0  0
   -3.0671   -2.5859   -0.5858 H   0  0  0  0  0  0  0  0  0  0  0  0
   -1.2261   -2.1939    0.4202 C   0  0  0  0  0  0  0  0  0  0  0  0
   -0.3181   -2.9519    0.7312 O   0  0  0  0  0  0  0  0  0  0  0  0
   -1.0281   -0.9259    0.0662 N   0  0  0  0  0  0  0  0  0  0  0  0
   -1.8301   -0.3519   -0.1548 H   0  0  0  0  0  0  0  0  0  0  0  0
    0.2709   -0.2409    0.0912 C   0  0  1  0  0  0  0  0  0  0  0  0
    0.7693   -0.3987   -0.8655 H   0  0  0  0  0  0  0  0  0  0  0  0
    0.0621    1.2681    0.2735 C   0  0  0  0  0  0  0  0  0  0  0  0
    1.0245    1.7754    0.1872 H   0  0  0  0  0  0  0  0  0  0  0  0
   -0.6039    1.6411   -0.5066 H   0  0  0  0  0  0  0  0  0  0  0  0
   -0.4892    1.5515    1.5459 O   0  0  0  0  0  0  0  0  0  0  0  0
   -0.4422    2.5029    1.6896 H   0  0  0  0  0  0  0  0  0  0  0  0
    1.1672   -0.8226    1.1970 C   0  0  0  0  0  0  0  0  0  0  0  0
    0.8857   -1.9047    1.7131 O   0  0  0  0  0  0  0  0  0  0  0  0
    2.2477   -0.1199    1.5540 N   0  0  0  0  0  0  0  0  0  0  0  0
    2.3460    0.7984    1.1419 H   0  0  0  0  0  0  0  0  0  0  0  0
    3.2131   -0.5368    2.5691 C   0  0  0  0  0  0  0  0  0  0  0  0
    3.4709   -1.5882    2.4246 H   0  0  0  0  0  0  0  0  0  0  0  0
    4.1178    0.0676    2.4986 H   0  0  0  0  0  0  0  0  0  0  0  0
    2.7748   -0.4180    3.5622 H   0  0  0  0  0  0  0  0  0  0  0  0
  5  6  2  0  0  0  0
  5  7  1  0  0  0  0
  2  3  1  0  0  0  0
  2  4  1  0  0  0  0
  2  5  1  0  0  0  0
  1  2  1  0  0  0  0
 16 17  2  0  0  0  0
 16 18  1  0  0  0  0
 14 15  1  0  0  0  0
 11 12  1  0  0  0  0
 11 13  1  0  0  0  0
 11 14  1  0  0  0  0
  9 10  1  0  0  0  0
  9 11  1  0  0  0  0
  9 16  1  0  0  0  0
  7  8  1  0  0  0  0
  7  9  1  0  0  0  0
 20 21  1  0  0  0  0
 20 22  1  0  0  0  0
 20 23  1  0  0  0  0
 18 19  1  0  0  0  0
 18 20  1  0  0  0  0
M  END
$$$$
default_name
  -OEChem-01062215323D

 23 22  0     1  0  0  0  0  0999 V2000
   -2.6721   -3.7279    0.7212 H   0  0  0  0  0  0  0  0  0  0  0  0
   -2.6561   -2.6819    0.4162 C   0  0  0  0  0  0  0  0  0  0  0  0
   -3.2401   -2.0889    1.1172 H   0  0  0  0  0  0  0  0  0  0  0  0
   -3.0671   -2.5859   -0.5858 H   0  0  0  0  0  0  0  0  0  0  0  0
   -1.2261   -2.1939    0.4202 C   0  0  0  0  0  0  0  0  0  0  0  0
   -0.3181   -2.9519    0.7312 O   0  0  0  0  0  0  0  0  0  0  0  0
   -1.0281   -0.9259    0.0662 N   0  0  0  0  0  0  0  0  0  0  0  0
   -1.8301   -0.3519   -0.1548 H   0  0  0  0  0  0  0  0  0  0  0  0
    0.2709   -0.2409    0.0912 C   0  0  1  0  0  0  0  0  0  0  0  0
    0.7693   -0.3987   -0.8655 H   0  0  0  0  0  0  0  0  0  0  0  0
    0.0621    1.2681    0.2735 C   0  0  0  0  0  0  0  0  0  0  0  0
    1.0245    1.7754    0.1872 H   0  0  0  0  0  0  0  0  0  0  0  0
   -0.6039    1.6411   -0.5066 H   0  0  0  0  0  0  0  0  0  0  0  0
   -0.4892    1.5515    1.5459 O   0  0  0  0  0  0  0  0  0  0  0  0
   -0.4422    2.5029    1.6896 H   0  0  0  0  0  0  0  0  0  0  0  0
    1.1672   -0.8226    1.1970 C   0  0  0  0  0  0  0  0  0  0  0  0
    1.0584   -2.0061    1.5198 O   0  0  0  0  0  0  0  0  0  0  0  0
    2.0575   -0.0046    1.7688 N   0  0  0  0  0  0  0  0  0  0  0  0
    2.0102    0.9705    1.5046 H   0  0  0  0  0  0  0  0  0  0  0  0
    2.9970   -0.3995    2.8165 C   0  0  0  0  0  0  0  0  0  0  0  0
    3.4647   -1.3509    2.5544 H   0  0  0  0  0  0  0  0  0  0  0  0
    3.7702    0.3602    2.9343 H   0  0  0  0  0  0  0  0  0  0  0  0
    2.4625   -0.5215    3.7609 H   0  0  0  0  0  0  0  0  0  0  0  0
  5  6  2  0  0  0  0
  5  7  1  0  0  0  0
  2  3  1  0  0  0  0
  2  4  1  0  0  0  0
  2  5  1  0  0  0  0
  1  2  1  0  0  0  0
 16 17  2  0  0  0  0
 16 18  1  0  0  0  0
 14 15  1  0  0  0  0
 11 12  1  0  0  0  0
 11 13  1  0  0  0  0
 11 14  1  0  0  0  0
  9 10  1  0  0  0  0
  9 11  1  0  0  0  0
  9 16  1  0  0  0  0
  7  8  1  0  0  0  0
  7  9  1  0  0  0  0
 20 21  1  0  0  0  0
 20 22  1  0  0  0  0
 20 23  1  0  0  0  0
 18 19  1  0  0  0  0
 18 20  1  0  0  0  0
M  END
$$$$
default_name
  -OEChem-01062215323D

 23 22  0     1  0  0  0  0  0999 V2000
   -2.6721   -3.7279    0.7212 H   0  0  0  0  0  0  0  0  0  0  0  0
   -2.6561   -2.6819    0.4162 C   0  0  0  0  0  0  0  0  0  0  0  0
   -3.2401   -2.0889    1.1172 H   0  0  0  0  0  0  0  0  0  0  0  0
   -3.0671   -2.5859   -0.5858 H   0  0  0  0  0  0  0  0  0  0  0  0
   -1.2261   -2.1939    0.4202 C   0  0  0  0  0  0  0  0  0  0  0  0
   -0.3181   -2.9519    0.7312 O   0  0  0  0  0  0  0  0  0  0  0  0
   -1.0281   -0.9259    0.0662 N   0  0  0  0  0  0  0  0  0  0  0  0
   -1.8301   -0.3519   -0.1548 H   0  0  0  0  0  0  0  0  0  0  0  0
    0.2709   -0.2409    0.0912 C   0  0  1  0  0  0  0  0  0  0  0  0
    0.7693   -0.3987   -0.8655 H   0  0  0  0  0  0  0  0  0  0  0  0
    0.0621    1.2681    0.2735 C   0  0  0  0  0  0  0  0  0  0  0  0
    1.0245    1.7754    0.1872 H   0  0  0  0  0  0  0  0  0  0  0  0
   -0.6039    1.6411   -0.5066 H   0  0  0  0  0  0  0  0  0  0  0  0
   -0.4892    1.5515    1.5459 O   0  0  0  0  0  0  0  0  0  0  0  0
   -0.4422    2.5029    1.6896 H   0  0  0  0  0  0  0  0  0  0  0  0
    1.1672   -0.8226    1.1970 C   0  0  0  0  0  0  0  0  0  0  0  0
    1.2630   -2.0426    1.3347 O   0  0  0  0  0  0  0  0  0  0  0  0
    1.8313    0.0389    1.9751 N   0  0  0  0  0  0  0  0  0  0  0  0
    1.6184    1.0194    1.8480 H   0  0  0  0  0  0  0  0  0  0  0  0
    2.7385   -0.3444    3.0551 C   0  0  0  0  0  0  0  0  0  0  0  0
    3.4018   -1.1425    2.7150 H   0  0  0  0  0  0  0  0  0  0  0  0
    3.3374    0.5124    3.3652 H   0  0  0  0  0  0  0  0  0  0  0  0
    2.1607   -0.7095    3.9067 H   0  0  0  0  0  0  0  0  0  0  0  0
  5  6  2  0  0  0  0
  5  7  1  0  0  0  0
  2  3  1  0  0  0  0
  2  4  1  0  0  0  0
  2  5  1  0  0  0  0
  1  2  1  0  0  0  0
 16 17  2  0  0  0  0
 16 18  1  0  0  0  0
 14 15  1  0  0  0  0
 11 12  1  0  0  0  0
 11 13  1  0  0  0  0
 11 14  1  0  0  0  0
  9 10  1  0  0  0  0
  9 11  1  0  0  0  0
  9 16  1  0  0  0  0
  7  8  1  0  0  0  0
  7  9  1  0  0  0  0
 20 21  1  0  0  0  0
 20 22  1  0  0  0  0
 20 23  1  0  0  0  0
 18 19  1  0  0  0  0
 18 20  1  0  0  0  0
M  END
$$$$
default_name
  -OEChem-01062215323D

 23 22  0     1  0  0  0  0  0999 V2000
   -2.6721   -3.7279    0.7212 H   0  0  0  0  0  0  0  0  0  0  0  0
   -2.6561   -2.6819    0.4162 C   0  0  0  0  0  0  0  0  0  0  0  0
   -3.2401   -2.0889    1.1172 H   0  0  0  0  0  0  0  0  0  0  0  0
   -3.0671   -2.5859   -0.5858 H   0  0  0  0  0  0  0  0  0  0  0  0
   -1.2261   -2.1939    0.4202 C   0  0  0  0  0  0  0  0  0  0  0  0
   -0.3181   -2.9519    0.7312 O   0  0  0  0  0  0  0  0  0  0  0  0
   -1.0281   -0.9259    0.0662 N   0  0  0  0  0  0  0  0  0  0  0  0
   -1.8301   -0.3519   -0.1548 H   0  0  0  0  0  0  0  0  0  0  0  0
    0.2709   -0.2409    0.0912 C   0  0  1  0  0  0  0  0  0  0  0  0
    0.7693   -0.3987   -0.8655 H   0  0  0  0  0  0  0  0  0  0  0  0
    0.0621    1.2681    0.2735 C   0  0  0  0  0  0  0  0  0  0  0  0
    1.0245    1.7754    0.1872 H   0  0  0  0  0  0  0  0  0  0  0  0
   -0.6039    1.6411   -0.5066 H   0  0  0  0  0  0  0  0  0  0  0  0
   -0.4892    1.5515    1.5459 O   0  0  0  0  0  0  0  0  0  0  0  0
   -0.4422    2.5029    1.6896 H   0  0  0  0  0  0  0  0  0  0  0  0
    1.1672   -0.8226    1.1970 C   0  0  0  0  0  0  0  0  0  0  0  0
    1.4856   -2.0120    1.1704 O   0  0  0  0  0  0  0  0  0  0  0  0
    1.5845    0.0078    2.1588 N   0  0  0  0  0  0  0  0  0  0  0  0
    1.1971    0.9420    2.1487 H   0  0  0  0  0  0  0  0  0  0  0  0
    2.4552   -0.3752    3.2685 C   0  0  0  0  0  0  0  0  0  0  0  0
    3.2866   -0.9771    2.8954 H   0  0  0  0  0  0  0  0  0  0  0  0
    2.8488    0.5138    3.7620 H   0  0  0  0  0  0  0  0  0  0  0  0
    1.8899   -0.9693    3.9896 H   0  0  0  0  0  0  0  0  0  0  0  0
  5  6  2  0  0  0  0
  5  7  1  0  0  0  0
  2  3  1  0  0  0  0
  2  4  1  0  0  0  0
  2  5  1  0  0  0  0
  1  2  1  0  0  0  0
 16 17  2  0  0  0  0
 16 18  1  0  0  0  0
 14 15  1  0  0  0  0
 11 12  1  0  0  0  0
 11 13  1  0  0  0  0
 11 14  1  0  0  0  0
  9 10  1  0  0  0  0
  9 11  1  0  0  0  0
  9 16  1  0  0  0  0
  7  8  1  0  0  0  0
  7  9  1  0  0  0  0
 20 21  1  0  0  0  0
 20 22  1  0  0  0  0
 20 23  1  0  0  0  0
 18 19  1  0  0  0  0
 18 20  1  0  0  0  0
M  END
$$$$
default_name
  -OEChem-01062215323D

 23 22  0     1  0  0  0  0  0999 V2000
   -2.6721   -3.7279    0.7212 H   0  0  0  0  0  0  0  0  0  0  0  0
   -2.6561   -2.6819    0.4162 C   0  0  0  0  0  0  0  0  0  0  0  0
   -3.2401   -2.0889    1.1172 H   0  0  0  0  0  0  0  0  0  0  0  0
   -3.0671   -2.5859   -0.5858 H   0  0  0  0  0  0  0  0  0  0  0  0
   -1.2261   -2.1939    0.4202 C   0  0  0  0  0  0  0  0  0  0  0  0
   -0.3181   -2.9519    0.7312 O   0  0  0  0  0  0  0  0  0  0  0  0
   -1.0281   -0.9259    0.0662 N   0  0  0  0  0  0  0  0  0  0  0  0
   -1.8301   -0.3519   -0.1548 H   0  0  0  0  0  0  0  0  0  0  0  0
    0.2709   -0.2409    0.0912 C   0  0  1  0  0  0  0  0  0  0  0  0
    0.7693   -0.3987   -0.8655 H   0  0  0  0  0  0  0  0  0  0  0  0
    0.0621    1.2681    0.2735 C   0  0  0  0  0  0  0  0  0  0  0  0
    1.0245    1.7754    0.1872 H   0  0  0  0  0  0  0  0  0  0  0  0
   -0.6039    1.6411   -0.5066 H   0  0  0  0  0  0  0  0  0  0  0  0
   -0.4892    1.5515    1.5459 O   0  0  0  0  0  0  0  0  0  0  0  0
   -0.4422    2.5029    1.6896 H   0  0  0  0  0  0  0  0  0  0  0  0
    1.1672   -0.8226    1.1970 C   0  0  0  0  0  0  0  0  0  0  0  0
    1.7110   -1.9161    1.0382 O   0  0  0  0  0  0  0  0  0  0  0  0
    1.3339   -0.0960    2.3074 N   0  0  0  0  0  0  0  0  0  0  0  0
    0.7752    0.7434    2.3863 H   0  0  0  0  0  0  0  0  0  0  0  0
    2.1664   -0.4900    3.4422 C   0  0  0  0  0  0  0  0  0  0  0  0
    3.1268   -0.8661    3.0833 H   0  0  0  0  0  0  0  0  0  0  0  0
    2.3377    0.3644    4.0977 H   0  0  0  0  0  0  0  0  0  0  0  0
    1.6685   -1.2831    4.0039 H   0  0  0  0  0  0  0  0  0  0  0  0
  5  6  2  0  0  0  0
  5  7  1  0  0  0  0
  2  3  1  0  0  0  0
  2  4  1  0  0  0  0
  2  5  1  0  0  0  0
  1  2  1  0  0  0  0
 16 17  2  0  0  0  0
 16 18  1  0  0  0  0
 14 15  1  0  0  0  0
 11 12  1  0  0  0  0
 11 13  1  0  0  0  0
 11 14  1  0  0  0  0
  9 10  1  0  0  0  0
  9 11  1  0  0  0  0
  9 16  1  0  0  0  0
  7  8  1  0  0  0  0
  7  9  1  0  0  0  0
 20 21  1  0  0  0  0
 20 22  1  0  0  0  0
 20 23  1  0  0  0  0
 18 19  1  0  0  0  0
 18 20  1  0  0  0  0
M  END
$$$$
default_name
  -OEChem-01062215323D

 23 22  0     1  0  0  0  0  0999 V2000
   -2.6721   -3.7279    0.7212 H   0  0  0  0  0  0  0  0  0  0  0  0
   -2.6561   -2.6819    0.4162 C   0  0  0  0  0  0  0  0  0  0  0  0
   -3.2401   -2.0889    1.1172 H   0  0  0  0  0  0  0  0  0  0  0  0
   -3.0671   -2.5859   -0.5858 H   0  0  0  0  0  0  0  0  0  0  0  0
   -1.2261   -2.1939    0.4202 C   0  0  0  0  0  0  0  0  0  0  0  0
   -0.3181   -2.9519    0.7312 O   0  0  0  0  0  0  0  0  0  0  0  0
   -1.0281   -0.9259    0.0662 N   0  0  0  0  0  0  0  0  0  0  0  0
   -1.8301   -0.3519   -0.1548 H   0  0  0  0  0  0  0  0  0  0  0  0
    0.2709   -0.2409    0.0912 C   0  0  1  0  0  0  0  0  0  0  0  0
    0.7693   -0.3987   -0.8655 H   0  0  0  0  0  0  0  0  0  0  0  0
    0.0621    1.2681    0.2735 C   0  0  0  0  0  0  0  0  0  0  0  0
    1.0245    1.7754    0.1872 H   0  0  0  0  0  0  0  0  0  0  0  0
   -0.6039    1.6411   -0.5066 H   0  0  0  0  0  0  0  0  0  0  0  0
   -0.4892    1.5515    1.5459 O   0  0  0  0  0  0  0  0  0  0  0  0
   -0.4422    2.5029    1.6896 H   0  0  0  0  0  0  0  0  0  0  0  0
    1.1672   -0.8226    1.1970 C   0  0  0  0  0  0  0  0  0  0  0  0
    1.9238   -1.7616    0.9469 O   0  0  0  0  0  0  0  0  0  0  0  0
    1.0966   -0.2652    2.4107 N   0  0  0  0  0  0  0  0  0  0  0  0
    0.3813    0.4372    2.5445 H   0  0  0  0  0  0  0  0  0  0  0  0
    1.8918   -0.6808    3.5645 C   0  0  0  0  0  0  0  0  0  0  0  0
    2.9334   -0.8169    3.2660 H   0  0  0  0  0  0  0  0  0  0  0  0
    1.8389    0.0743    4.3493 H   0  0  0  0  0  0  0  0  0  0  0  0
    1.5117   -1.6296    3.9487 H   0  0  0  0  0  0  0  0  0  0  0  0
  5  6  2  0  0  0  0
  5  7  1  0  0  0  0
  2  3  1  0  0  0  0
  2  4  1  0  0  0  0
  2  5  1  0  0  0  0
  1  2  1  0  0  0  0
 16 17  2  0  0  0  0
 16 18  1  0  0  0  0
 14 15  1  0  0  0  0
 11 12  1  0  0  0  0
 11 13  1  0  0  0  0
 11 14  1  0  0  0  0
  9 10  1  0  0  0  0
  9 11  1  0  0  0  0
  9 16  1  0  0  0  0
  7  8  1  0  0  0  0
  7  9  1  0  0  0  0
 20 21  1  0  0  0  0
 20 22  1  0  0  0  0
 20 23  1  0  0  0  0
 18 19  1  0  0  0  0
 18 20  1  0  0  0  0
M  END
$$$$
default_name
  -OEChem-01062215323D

 23 22  0     1  0  0  0  0  0999 V2000
   -2.6721   -3.7279    0.7212 H   0  0  0  0  0  0  0  0  0  0  0  0
   -2.6561   -2.6819    0.4162 C   0  0  0  0  0  0  0  0  0  0  0  0
   -3.2401   -2.0889    1.1172 H   0  0  0  0  0  0  0  0  0  0  0  0
   -3.0671   -2.5859   -0.5858 H   0  0  0  0  0  0  0  0  0  0  0  0
   -1.2261   -2.1939    0.4202 C   0  0  0  0  0  0  0  0  0  0  0  0
   -0.3181   -2.9519    0.7312 O   0  0  0  0  0  0  0  0  0  0  0  0
   -1.0281   -0.9259    0.0662 N   0  0  0  0  0  0  0  0  0  0  0  0
   -1.8301   -0.3519   -0.1548 H   0  0  0  0  0  0  0  0  0  0  0  0
    0.2709   -0.2409    0.0912 C   0  0  1  0  0  0  0  0  0  0  0  0
    0.7693   -0.3987   -0.8655 H   0  0  0  0  0  0  0  0  0  0  0  0
    0.0621    1.2681    0.2735 C   0  0  0  0  0  0  0  0  0  0  0  0
    1.0245    1.7754    0.1872 H   0  0  0  0  0  0  0  0  0  0  0  0
   -0.6039    1.6411   -0.5066 H   0  0  0  0  0  0  0  0  0  0  0  0
   -0.4892    1.5515    1.5459 O   0  0  0  0  0  0  0  0  0  0  0  0
   -0.4422    2.5029    1.6896 H   0  0  0  0  0  0  0  0  0  0  0  0
    1.1672   -0.8226    1.1970 C   0  0  0  0  0  0  0  0  0  0  0  0
    2.1095   -1.5590    0.9030 O   0  0  0  0  0  0  0  0  0  0  0  0
    0.8888   -0.4885    2.4617 N   0  0  0  0  0  0  0  0  0  0  0  0
    0.0424    0.0443    2.6125 H   0  0  0  0  0  0  0  0  0  0  0  0
    1.6500   -0.9346    3.6269 C   0  0  0  0  0  0  0  0  0  0  0  0
    2.7196   -0.8329    3.4309 H   0  0  0  0  0  0  0  0  0  0  0  0
    1.3866   -0.3367    4.4998 H   0  0  0  0  0  0  0  0  0  0  0  0
    1.4301   -1.9852    3.8278 H   0  0  0  0  0  0  0  0  0  0  0  0
  5  6  2  0  0  0  0
  5  7  1  0  0  0  0
  2  3  1  0  0  0  0
  2  4  1  0  0  0  0
  2  5  1  0  0  0  0
  1  2  1  0  0  0  0
 16 17  2  0  0  0  0
 16 18  1  0  0  0  0
 14 15  1  0  0  0  0
 11 12  1  0  0  0  0
 11 13  1  0  0  0  0
 11 14  1  0  0  0  0
  9 10  1  0  0  0  0
  9 11  1  0  0  0  0
  9 16  1  0  0  0  0
  7  8  1  0  0  0  0
  7  9  1  0  0  0  0
 20 21  1  0  0  0  0
 20 22  1  0  0  0  0
 20 23  1  0  0  0  0
 18 19  1  0  0  0  0
 18 20  1  0  0  0  0
M  END
$$$$
default_name
  -OEChem-01062215323D

 23 22  0     1  0  0  0  0  0999 V2000
   -2.6721   -3.7279    0.7212 H   0  0  0  0  0  0  0  0  0  0  0  0
   -2.6561   -2.6819    0.4162 C   0  0  0  0  0  0  0  0  0  0  0  0
   -3.2401   -2.0889    1.1172 H   0  0  0  0  0  0  0  0  0  0  0  0
   -3.0671   -2.5859   -0.5858 H   0  0  0  0  0  0  0  0  0  0  0  0
   -1.2261   -2.1939    0.4202 C   0  0  0  0  0  0  0  0  0  0  0  0
   -0.3181   -2.9519    0.7312 O   0  0  0  0  0  0  0  0  0  0  0  0
   -1.0281   -0.9259    0.0662 N   0  0  0  0  0  0  0  0  0  0  0  0
   -1.8301   -0.3519   -0.1548 H   0  0  0  0  0  0  0  0  0  0  0  0
    0.2709   -0.2409    0.0912 C   0  0  1  0  0  0  0  0  0  0  0  0
    0.7693   -0.3987   -0.8655 H   0  0  0  0  0  0  0  0  0  0  0  0
    0.0621    1.2681    0.2735 C   0  0  0  0  0  0  0  0  0  0  0  0
    1.0245    1.7754    0.1872 H   0  0  0  0  0  0  0  0  0  0  0  0
   -0.6039    1.6411   -0.5066 H   0  0  0  0  0  0  0  0  0  0  0  0
   -0.4892    1.5515    1.5459 O   0  0  0  0  0  0  0  0  0  0  0  0
   -0.4422    2.5029    1.6896 H   0  0  0  0  0  0  0  0  0  0  0  0
    1.1672   -0.8226    1.1970 C   0  0  0  0  0  0  0  0  0  0  0  0
    2.2555   -1.3221    0.9092 O   0  0  0  0  0  0  0  0  0  0  0  0
    0.7246   -0.7505    2.4569 N   0  0  0  0  0  0  0  0  0  0  0  0
   -0.2185   -0.4086    2.5858 H   0  0  0  0  0  0  0  0  0  0  0  0
    1.4577   -1.2342    3.6252 C   0  0  0  0  0  0  0  0  0  0  0  0
    2.4999   -0.9130    3.5668 H   0  0  0  0  0  0  0  0  0  0  0  0
    1.0114   -0.8406    4.5389 H   0  0  0  0  0  0  0  0  0  0  0  0
    1.4293   -2.3255    3.6494 H   0  0  0  0  0  0  0  0  0  0  0  0
  5  6  2  0  0  0  0
  5  7  1  0  0  0  0
  2  3  1  0  0  0  0
  2  4  1  0  0  0  0
  2  5  1  0  0  0  0
  1  2  1  0  0  0  0
 16 17  2  0  0  0  0
 16 18  1  0  0  0  0
 14 15  1  0  0  0  0
 11 12  1  0  0  0  0
 11 13  1  0  0  0  0
 11 14  1  0  0  0  0
  9 10  1  0  0  0  0
  9 11  1  0  0  0  0
  9 16  1  0  0  0  0
  7  8  1  0  0  0  0
  7  9  1  0  0  0  0
 20 21  1  0  0  0  0
 20 22  1  0  0  0  0
 20 23  1  0  0  0  0
 18 19  1  0  0  0  0
 18 20  1  0  0  0  0
M  END
$$$$
default_name
  -OEChem-01062215323D

 23 22  0     1  0  0  0  0  0999 V2000
   -2.6721   -3.7279    0.7212 H   0  0  0  0  0  0  0  0  0  0  0  0
   -2.6561   -2.6819    0.4162 C   0  0  0  0  0  0  0  0  0  0  0  0
   -3.2401   -2.0889    1.1172 H   0  0  0  0  0  0  0  0  0  0  0  0
   -3.0671   -2.5859   -0.5858 H   0  0  0  0  0  0  0  0  0  0  0  0
   -1.2261   -2.1939    0.4202 C   0  0  0  0  0  0  0  0  0  0  0  0
   -0.3181   -2.9519    0.7312 O   0  0  0  0  0  0  0  0  0  0  0  0
   -1.0281   -0.9259    0.0662 N   0  0  0  0  0  0  0  0  0  0  0  0
   -1.8301   -0.3519   -0.1548 H   0  0  0  0  0  0  0  0  0  0  0  0
    0.2709   -0.2409    0.0912 C   0  0  1  0  0  0  0  0  0  0  0  0
    0.7693   -0.3987   -0.8655 H   0  0  0  0  0  0  0  0  0  0  0  0
    0.0621    1.2681    0.2735 C   0  0  0  0  0  0  0  0  0  0  0  0
    1.0245    1.7754    0.1872 H   0  0  0  0  0  0  0  0  0  0  0  0
   -0.6039    1.6411   -0.5066 H   0  0  0  0  0  0  0  0  0  0  0  0
   -0.4892    1.5515    1.5459 O   0  0  0  0  0  0  0  0  0  0  0  0
   -0.4422    2.5029    1.6896 H   0  0  0  0  0  0  0  0  0  0  0  0
    1.1672   -0.8226    1.1970 C   0  0  0  0  0  0  0  0  0  0  0  0
    2.3518   -1.0671    0.9653 O   0  0  0  0  0  0  0  0  0  0  0  0
    0.6152   -1.0334    2.3968 N   0  0  0  0  0  0  0  0  0  0  0  0
   -0.3836   -0.8906    2.4661 H   0  0  0  0  0  0  0  0  0  0  0  0
    1.3278   -1.5591    3.5595 C   0  0  0  0  0  0  0  0  0  0  0  0
    2.2892   -1.0519    3.6645 H   0  0  0  0  0  0  0  0  0  0  0  0
    0.7389   -1.4031    4.4638 H   0  0  0  0  0  0  0  0  0  0  0  0
    1.5094   -2.6276    3.4257 H   0  0  0  0  0  0  0  0  0  0  0  0
  5  6  2  0  0  0  0
  5  7  1  0  0  0  0
  2  3  1  0  0  0  0
  2  4  1  0  0  0  0
  2  5  1  0  0  0  0
  1  2  1  0  0  0  0
 16 17  2  0  0  0  0
 16 18  1  0  0  0  0
 14 15  1  0  0  0  0
 11 12  1  0  0  0  0
 11 13  1  0  0  0  0
 11 14  1  0  0  0  0
  9 10  1  0  0  0  0
  9 11  1  0  0  0  0
  9 16  1  0  0  0  0
  7  8  1  0  0  0  0
  7  9  1  0  0  0  0
 20 21  1  0  0  0  0
 20 22  1  0  0  0  0
 20 23  1  0  0  0  0
 18 19  1  0  0  0  0
 18 20  1  0  0  0  0
M  END
$$$$
default_name
  -OEChem-01062215323D

 23 22  0     1  0  0  0  0  0999 V2000
   -2.6721   -3.7279    0.7212 H   0  0  0  0  0  0  0  0  0  0  0  0
   -2.6561   -2.6819    0.4162 C   0  0  0  0  0  0  0  0  0  0  0  0
   -3.2401   -2.0889    1.1172 H   0  0  0  0  0  0  0  0  0  0  0  0
   -3.0671   -2.5859   -0.5858 H   0  0  0  0  0  0  0  0  0  0  0  0
   -1.2261   -2.1939    0.4202 C   0  0  0  0  0  0  0  0  0  0  0  0
   -0.3181   -2.9519    0.7312 O   0  0  0  0  0  0  0  0  0  0  0  0
   -1.0281   -0.9259    0.0662 N   0  0  0  0  0  0  0  0  0  0  0  0
   -1.8301   -0.3519   -0.1548 H   0  0  0  0  0  0  0  0  0  0  0  0
    0.2709   -0.2409    0.0912 C   0  0  1  0  0  0  0  0  0  0  0  0
    0.7693   -0.3987   -0.8655 H   0  0  0  0  0  0  0  0  0  0  0  0
    0.0621    1.2681    0.2735 C   0  0  0  0  0  0  0  0  0  0  0  0
    1.0245    1.7754    0.1872 H   0  0  0  0  0  0  0  0  0  0  0  0
   -0.6039    1.6411   -0.5066 H   0  0  0  0  0  0  0  0  0  0  0  0
   -0.4892    1.5515    1.5459 O   0  0  0  0  0  0  0  0  0  0  0  0
   -0.4422    2.5029    1.6896 H   0  0  0  0  0  0  0  0  0  0  0  0
    1.1672   -0.8226    1.1970 C   0  0  0  0  0  0  0  0  0  0  0  0
    2.3919   -0.8113    1.0674 O   0  0  0  0  0  0  0  0  0  0  0  0
    0.5682   -1.3180    2.2852 N   0  0  0  0  0  0  0  0  0  0  0  0
   -0.4417   -1.3688    2.2616 H   0  0  0  0  0  0  0  0  0  0  0  0
    1.2693   -1.8873    3.4344 C   0  0  0  0  0  0  0  0  0  0  0  0
    2.1021   -1.2399    3.7173 H   0  0  0  0  0  0  0  0  0  0  0  0
    0.5878   -1.9858    4.2798 H   0  0  0  0  0  0  0  0  0  0  0  0
    1.6649   -2.8706    3.1718 H   0  0  0  0  0  0  0  0  0  0  0  0
  5  6  2  0  0  0  0
  5  7  1  0  0  0  0
  2  3  1  0  0  0  0
  2  4  1  0  0  0  0
  2  5  1  0  0  0  0
  1  2  1  0  0  0  0
 16 17  2  0  0  0  0
 16 18  1  0  0  0  0
 14 15  1  0  0  0  0
 11 12  1  0  0  0  0
 11 13  1  0  0  0  0
 11 14  1  0  0  0  0
  9 10  1  0  0  0  0
  9 11  1  0  0  0  0
  9 16  1  0  0  0  0
  7  8  1  0  0  0  0
  7  9  1  0  0  0  0
 20 21  1  0  0  0  0
 20 22  1  0  0  0  0
 20 23  1  0  0  0  0
 18 19  1  0  0  0  0
 18 20  1  0  0  0  0
M  END
$$$$
default_name
  -OEChem-01062215323D

 23 22  0     1  0  0  0  0  0999 V2000
   -2.6721   -3.7279    0.7212 H   0  0  0  0  0  0  0  0  0  0  0  0
   -2.6561   -2.6819    0.4162 C   0  0  0  0  0  0  0  0  0  0  0  0
   -3.2401   -2.0889    1.1172 H   0  0  0  0  0  0  0  0  0  0  0  0
   -3.0671   -2.5859   -0.5858 H   0  0  0  0  0  0  0  0  0  0  0  0
   -1.2261   -2.1939    0.4202 C   0  0  0  0  0  0  0  0  0  0  0  0
   -0.3181   -2.9519    0.7312 O   0  0  0  0  0  0  0  0  0  0  0  0
   -1.0281   -0.9259    0.0662 N   0  0  0  0  0  0  0  0  0  0  0  0
   -1.8301   -0.3519   -0.1548 H   0  0  0  0  0  0  0  0  0  0  0  0
    0.2709   -0.2409    0.0912 C   0  0  1  0  0  0  0  0  0  0  0  0
    0.7693   -0.3987   -0.8655 H   0  0  0  0  0  0  0  0  0  0  0  0
    0.0621    1.2681    0.2735 C   0  0  0  0  0  0  0  0  0  0  0  0
    1.0245    1.7754    0.1872 H   0  0  0  0  0  0  0  0  0  0  0  0
   -0.6039    1.6411   -0.5066 H   0  0  0  0  0  0  0  0  0  0  0  0
   -0.4892    1.5515    1.5459 O   0  0  0  0  0  0  0  0  0  0  0  0
   -0.4422    2.5029    1.6896 H   0  0  0  0  0  0  0  0  0  0  0  0
    1.1672   -0.8226    1.1970 C   0  0  0  0  0  0  0  0  0  0  0  0
    2.3730   -0.5721    1.2085 O   0  0  0  0  0  0  0  0  0  0  0  0
    0.5866   -1.5848    2.1300 N   0  0  0  0  0  0  0  0  0  0  0  0
   -0.3887   -1.8107    1.9862 H   0  0  0  0  0  0  0  0  0  0  0  0
    1.2861   -2.1962    3.2583 C   0  0  0  0  0  0  0  0  0  0  0  0
    1.9511   -1.4644    3.7216 H   0  0  0  0  0  0  0  0  0  0  0  0
    0.5683   -2.5490    3.9994 H   0  0  0  0  0  0  0  0  0  0  0  0
    1.8851   -3.0382    2.9051 H   0  0  0  0  0  0  0  0  0  0  0  0
  5  6  2  0  0  0  0
  5  7  1  0  0  0  0
  2  3  1  0  0  0  0
  2  4  1  0  0  0  0
  2  5  1  0  0  0  0
  1  2  1  0  0  0  0
 16 17  2  0  0  0  0
 16 18  1  0  0  0  0
 14 15  1  0  0  0  0
 11 12  1  0  0  0  0
 11 13  1  0  0  0  0
 11 14  1  0  0  0  0
  9 10  1  0  0  0  0
  9 11  1  0  0  0  0
  9 16  1  0  0  0  0
  7  8  1  0  0  0  0
  7  9  1  0  0  0  0
 20 21  1  0  0  0  0
 20 22  1  0  0  0  0
 20 23  1  0  0  0  0
 18 19  1  0  0  0  0
 18 20  1  0  0  0  0
M  END
$$$$
default_name
  -OEChem-01062215323D

 23 22  0     1  0  0  0  0  0999 V2000
   -2.6721   -3.7279    0.7212 H   0  0  0  0  0  0  0  0  0  0  0  0
   -2.6561   -2.6819    0.4162 C   0  0  0  0  0  0  0  0  0  0  0  0
   -3.2401   -2.0889    1.1172 H   0  0  0  0  0  0  0  0  0  0  0  0
   -3.0671   -2.5859   -0.5858 H   0  0  0  0  0  0  0  0  0  0  0  0
   -1.2261   -2.1939    0.4202 C   0  0  0  0  0  0  0  0  0  0  0  0
   -0.3181   -2.9519    0.7312 O   0  0  0  0  0  0  0  0  0  0  0  0
   -1.0281   -0.9259    0.0662 N   0  0  0  0  0  0  0  0  0  0  0  0
   -1.8301   -0.3519   -0.1548 H   0  0  0  0  0  0  0  0  0  0  0  0
    0.2709   -0.2409    0.0912 C   0  0  1  0  0  0  0  0  0  0  0  0
    0.7693   -0.3987   -0.8655 H   0  0  0  0  0  0  0  0  0  0  0  0
    0.0621    1.2681    0.2735 C   0  0  0  0  0  0  0  0  0  0  0  0
    1.0245    1.7754    0.1872 H   0  0  0  0  0  0  0  0  0  0  0  0
   -0.6039    1.6411   -0.5066 H   0  0  0  0  0  0  0  0  0  0  0  0
   -0.4892    1.5515    1.5459 O   0  0  0  0  0  0  0  0  0  0  0  0
   -0.4422    2.5029    1.6896 H   0  0  0  0  0  0  0  0  0  0  0  0
    1.1672   -0.8226    1.1970 C   0  0  0  0  0  0  0  0  0  0  0  0
    2.2964   -0.3659    1.3791 O   0  0  0  0  0  0  0  0  0  0  0  0
    0.6692   -1.8156    1.9416 N   0  0  0  0  0  0  0  0  0  0  0  0
   -0.2283   -2.1862    1.6587 H   0  0  0  0  0  0  0  0  0  0  0  0
    1.3770   -2.4650    3.0432 C   0  0  0  0  0  0  0  0  0  0  0  0
    1.8466   -1.7099    3.6772 H   0  0  0  0  0  0  0  0  0  0  0  0
    0.6817   -3.0543    3.6417 H   0  0  0  0  0  0  0  0  0  0  0  0
    2.1551   -3.1188    2.6438 H   0  0  0  0  0  0  0  0  0  0  0  0
  5  6  2  0  0  0  0
  5  7  1  0  0  0  0
  2  3  1  0  0  0  0
  2  4  1  0  0  0  0
  2  5  1  0  0  0  0
  1  2  1  0  0  0  0
 16 17  2  0  0  0  0
 16 18  1  0  0  0  0
 14 15  1  0  0  0  0
 11 12  1  0  0  0  0
 11 13  1  0  0  0  0
 11 14  1  0  0  0  0
  9 10  1  0  0  0  0
  9 11  1  0  0  0  0
  9 16  1  0  0  0  0
  7  8  1  0  0  0  0
  7  9  1  0  0  0  0
 20 21  1  0  0  0  0
 20 22  1  0  0  0  0
 20 23  1  0  0  0  0
 18 19  1  0  0  0  0
 18 20  1  0  0  0  0
M  END
$$$$
default_name
  -OEChem-01062215323D

 23 22  0     1  0  0  0  0  0999 V2000
   -2.6721   -3.7279    0.7212 H   0  0  0  0  0  0  0  0  0  0  0  0
   -2.6561   -2.6819    0.4162 C   0  0  0  0  0  0  0  0  0  0  0  0
   -3.2401   -2.0889    1.1172 H   0  0  0  0  0  0  0  0  0  0  0  0
   -3.0671   -2.5859   -0.5858 H   0  0  0  0  0  0  0  0  0  0  0  0
   -1.2261   -2.1939    0.4202 C   0  0  0  0  0  0  0  0  0  0  0  0
   -0.3181   -2.9519    0.7312 O   0  0  0  0  0  0  0  0  0  0  0  0
   -1.0281   -0.9259    0.0662 N   0  0  0  0  0  0  0  0  0  0  0  0
   -1.8301   -0.3519   -0.1548 H   0  0  0  0  0  0  0  0  0  0  0  0
    0.2709   -0.2409    0.0912 C   0  0  1  0  0  0  0  0  0  0  0  0
    0.7693   -0.3987   -0.8655 H   0  0  0  0  0  0  0  0  0  0  0  0
    0.0621    1.2681    0.2735 C   0  0  0  0  0  0  0  0  0  0  0  0
    1.0245    1.7754    0.1872 H   0  0  0  0  0  0  0  0  0  0  0  0
   -0.6039    1.6411   -0.5066 H   0  0  0  0  0  0  0  0  0  0  0  0
   -0.4892    1.5515    1.5459 O   0  0  0  0  0  0  0  0  0  0  0  0
   -0.4422    2.5029    1.6896 H   0  0  0  0  0  0  0  0  0  0  0  0
    1.1672   -0.8226    1.1970 C   0  0  0  0  0  0  0  0  0  0  0  0
    2.1674   -0.2067    1.5674 O   0  0  0  0  0  0  0  0  0  0  0  0
    0.8104   -1.9948    1.7328 N   0  0  0  0  0  0  0  0  0  0  0  0
    0.0285   -2.4695    1.3015 H   0  0  0  0  0  0  0  0  0  0  0  0
    1.5360   -2.6752    2.8038 C   0  0  0  0  0  0  0  0  0  0  0  0
    1.7958   -1.9598    3.5869 H   0  0  0  0  0  0  0  0  0  0  0  0
    0.9204   -3.4673    3.2310 H   0  0  0  0  0  0  0  0  0  0  0  0
    2.4566   -3.1070    2.4057 H   0  0  0  0  0  0  0  0  0  0  0  0
  5  6  2  0  0  0  0
  5  7  1  0  0  0  0
  2  3  1  0  0  0  0
  2  4  1  0  0  0  0
  2  5  1  0  0  0  0
  1  2  1  0  0  0  0
 16 17  2  0  0  0  0
 16 18  1  0  0  0  0
 14 15  1  0  0  0  0
 11 12  1  0  0  0  0
 11 13  1  0  0  0  0
 11 14  1  0  0  0  0
  9 10  1  0  0  0  0
  9 11  1  0  0  0  0
  9 16  1  0  0  0  0
  7  8  1  0  0  0  0
  7  9  1  0  0  0  0
 20 21  1  0  0  0  0
 20 22  1  0  0  0  0
 20 23  1  0  0  0  0
 18 19  1  0  0  0  0
 18 20  1  0  0  0  0
M  END
$$$$
default_name
  -OEChem-01062215323D

 23 22  0     1  0  0  0  0  0999 V2000
   -2.6721   -3.7279    0.7212 H   0  0  0  0  0  0  0  0  0  0  0  0
   -2.6561   -2.6819    0.4162 C   0  0  0  0  0  0  0  0  0  0  0  0
   -3.2401   -2.0889    1.1172 H   0  0  0  0  0  0  0  0  0  0  0  0
   -3.0671   -2.5859   -0.5858 H   0  0  0  0  0  0  0  0  0  0  0  0
   -1.2261   -2.1939    0.4202 C   0  0  0  0  0  0  0  0  0  0  0  0
   -0.3181   -2.9519    0.7312 O   0  0  0  0  0  0  0  0  0  0  0  0
   -1.0281   -0.9259    0.0662 N   0  0  0  0  0  0  0  0  0  0  0  0
   -1.8301   -0.3519   -0.1548 H   0  0  0  0  0  0  0  0  0  0  0  0
    0.2709   -0.2409    0.0912 C   0  0  1  0  0  0  0  0  0  0  0  0
    0.7693   -0.3987   -0.8655 H   0  0  0  0  0  0  0  0  0  0  0  0
    0.0621    1.2681    0.2735 C   0  0  0  0  0  0  0  0  0  0  0  0
    1.0245    1.7754    0.1872 H   0  0  0  0  0  0  0  0  0  0  0  0
   -0.6039    1.6411   -0.5066 H   0  0  0  0  0  0  0  0  0  0  0  0
   -0.4892    1.5515    1.5459 O   0  0  0  0  0  0  0  0  0  0  0  0
   -0.4422    2.5029    1.6896 H   0  0  0  0  0  0  0  0  0  0  0  0
    1.1672   -0.8226    1.1970 C   0  0  0  0  0  0  0  0  0  0  0  0
    1.9946   -0.1054    1.7607 O   0  0  0  0  0  0  0  0  0  0  0  0
    1.0006   -2.1101    1.5180 N   0  0  0  0  0  0  0  0  0  0  0  0
    0.3643   -2.6416    0.9388 H   0  0  0  0  0  0  0  0  0  0  0  0
    1.7521   -2.8125    2.5564 C   0  0  0  0  0  0  0  0  0  0  0  0
    1.8020   -2.1970    3.4571 H   0  0  0  0  0  0  0  0  0  0  0  0
    1.2680   -3.7599    2.7953 H   0  0  0  0  0  0  0  0  0  0  0  0
    2.7688   -3.0036    2.2070 H   0  0  0  0  0  0  0  0  0  0  0  0
  5  6  2  0  0  0  0
  5  7  1  0  0  0  0
  2  3  1  0  0  0  0
  2  4  1  0  0  0  0
  2  5  1  0  0  0  0
  1  2  1  0  0  0  0
 16 17  2  0  0  0  0
 16 18  1  0  0  0  0
 14 15  1  0  0  0  0
 11 12  1  0  0  0  0
 11 13  1  0  0  0  0
 11 14  1  0  0  0  0
  9 10  1  0  0  0  0
  9 11  1  0  0  0  0
  9 16  1  0  0  0  0
  7  8  1  0  0  0  0
  7  9  1  0  0  0  0
 20 21  1  0  0  0  0
 20 22  1  0  0  0  0
 20 23  1  0  0  0  0
 18 19  1  0  0  0  0
 18 20  1  0  0  0  0
M  END
$$$$
default_name
  -OEChem-01062215323D

 23 22  0     1  0  0  0  0  0999 V2000
   -2.6721   -3.7279    0.7212 H   0  0  0  0  0  0  0  0  0  0  0  0
   -2.6561   -2.6819    0.4162 C   0  0  0  0  0  0  0  0  0  0  0  0
   -3.2401   -2.0889    1.1172 H   0  0  0  0  0  0  0  0  0  0  0  0
   -3.0671   -2.5859   -0.5858 H   0  0  0  0  0  0  0  0  0  0  0  0
   -1.2261   -2.1939    0.4202 C   0  0  0  0  0  0  0  0  0  0  0  0
   -0.3181   -2.9519    0.7312 O   0  0  0  0  0  0  0  0  0  0  0  0
   -1.0281   -0.9259    0.0662 N   0  0  0  0  0  0  0  0  0  0  0  0
   -1.8301   -0.3519   -0.1548 H   0  0  0  0  0  0  0  0  0  0  0  0
    0.2709   -0.2409    0.0912 C   0  0  1  0  0  0  0  0  0  0  0  0
    0.7693   -0.3987   -0.8655 H   0  0  0  0  0  0  0  0  0  0  0  0
    0.0621    1.2681    0.2735 C   0  0  0  0  0  0  0  0  0  0  0  0
    1.0245    1.7754    0.1872 H   0  0  0  0  0  0  0  0  0  0  0  0
   -0.6039    1.6411   -0.5066 H   0  0  0  0  0  0  0  0  0  0  0  0
   -0.4892    1.5515    1.5459 O   0  0  0  0  0  0  0  0  0  0  0  0
   -0.4422    2.5029    1.6896 H   0  0  0  0  0  0  0  0  0  0  0  0
    1.1672   -0.8226    1.1970 C   0  0  0  0  0  0  0  0  0  0  0  0
    1.7900   -0.0688    1.9458 O   0  0  0  0  0  0  0  0  0  0  0  0
    1.2269   -2.1537    1.3117 N   0  0  0  0  0  0  0  0  0  0  0  0
    0.7562   -2.6905    0.5954 H   0  0  0  0  0  0  0  0  0  0  0  0
    2.0106   -2.8677    2.3178 C   0  0  0  0  0  0  0  0  0  0  0  0
    1.8649   -2.4055    3.2965 H   0  0  0  0  0  0  0  0  0  0  0  0
    1.7008   -3.9121    2.3644 H   0  0  0  0  0  0  0  0  0  0  0  0
    3.0707   -2.8156    2.0612 H   0  0  0  0  0  0  0  0  0  0  0  0
  5  6  2  0  0  0  0
  5  7  1  0  0  0  0
  2  3  1  0  0  0  0
  2  4  1  0  0  0  0
  2  5  1  0  0  0  0
  1  2  1  0  0  0  0
 16 17  2  0  0  0  0
 16 18  1  0  0  0  0
 14 15  1  0  0  0  0
 11 12  1  0  0  0  0
 11 13  1  0  0  0  0
 11 14  1  0  0  0  0
  9 10  1  0  0  0  0
  9 11  1  0  0  0  0
  9 16  1  0  0  0  0
  7  8  1  0  0  0  0
  7  9  1  0  0  0  0
 20 21  1  0  0  0  0
 20 22  1  0  0  0  0
 20 23  1  0  0  0  0
 18 19  1  0  0  0  0
 18 20  1  0  0  0  0
M  END
$$$$
default_name
  -OEChem-01062215323D

 23 22  0     1  0  0  0  0  0999 V2000
   -2.6721   -3.7279    0.7212 H   0  0  0  0  0  0  0  0  0  0  0  0
   -2.6561   -2.6819    0.4162 C   0  0  0  0  0  0  0  0  0  0  0  0
   -3.2401   -2.0889    1.1172 H   0  0  0  0  0  0  0  0  0  0  0  0
   -3.0671   -2.5859   -0.5858 H   0  0  0  0  0  0  0  0  0  0  0  0
   -1.2261   -2.1939    0.4202 C   0  0  0  0  0  0  0  0  0  0  0  0
   -0.3181   -2.9519    0.7312 O   0  0  0  0  0  0  0  0  0  0  0  0
   -1.0281   -0.9259    0.0662 N   0  0  0  0  0  0  0  0  0  0  0  0
   -1.8301   -0.3519   -0.1548 H   0  0  0  0  0  0  0  0  0  0  0  0
    0.2709   -0.2409    0.0912 C   0  0  1  0  0  0  0  0  0  0  0  0
    0.7693   -0.3987   -0.8655 H   0  0  0  0  0  0  0  0  0  0  0  0
    0.0621    1.2681    0.2735 C   0  0  0  0  0  0  0  0  0  0  0  0
    1.0245    1.7754    0.1872 H   0  0  0  0  0  0  0  0  0  0  0  0
   -0.6039    1.6411   -0.5066 H   0  0  0  0  0  0  0  0  0  0  0  0
   -0.4892    1.5515    1.5459 O   0  0  0  0  0  0  0  0  0  0  0  0
   -0.4422    2.5029    1.6896 H   0  0  0  0  0  0  0  0  0  0  0  0
    1.1672   -0.8226    1.1970 C   0  0  0  0  0  0  0  0  0  0  0  0
    1.5674   -0.0995    2.1101 O   0  0  0  0  0  0  0  0  0  0  0  0
    1.4737   -2.1225    1.1280 N   0  0  0  0  0  0  0  0  0  0  0  0
    1.1774   -2.6131    0.2947 H   0  0  0  0  0  0  0  0  0  0  0  0
    2.2939   -2.8368    2.1044 C   0  0  0  0  0  0  0  0  0  0  0  0
    1.9801   -2.5708    3.1161 H   0  0  0  0  0  0  0  0  0  0  0  0
    2.1894   -3.9135    1.9676 H   0  0  0  0  0  0  0  0  0  0  0  0
    3.3415   -2.5558    1.9784 H   0  0  0  0  0  0  0  0  0  0  0  0
  5  6  2  0  0  0  0
  5  7  1  0  0  0  0
  2  3  1  0  0  0  0
  2  4  1  0  0  0  0
  2  5  1  0  0  0  0
  1  2  1  0  0  0  0
 16 17  2  0  0  0  0
 16 18  1  0  0  0  0
 14 15  1  0  0  0  0
 11 12  1  0  0  0  0
 11 13  1  0  0  0  0
 11 14  1  0  0  0  0
  9 10  1  0  0  0  0
  9 11  1  0  0  0  0
  9 16  1  0  0  0  0
  7  8  1  0  0  0  0
  7  9  1  0  0  0  0
 20 21  1  0  0  0  0
 20 22  1  0  0  0  0
 20 23  1  0  0  0  0
 18 19  1  0  0  0  0
 18 20  1  0  0  0  0
M  END
$$$$
default_name
  -OEChem-01062215323D

 23 22  0     1  0  0  0  0  0999 V2000
   -2.6721   -3.7279    0.7212 H   0  0  0  0  0  0  0  0  0  0  0  0
   -2.6561   -2.6819    0.4162 C   0  0  0  0  0  0  0  0  0  0  0  0
   -3.2401   -2.0889    1.1172 H   0  0  0  0  0  0  0  0  0  0  0  0
   -3.0671   -2.5859   -0.5858 H   0  0  0  0  0  0  0  0  0  0  0  0
   -1.2261   -2.1939    0.4202 C   0  0  0  0  0  0  0  0  0  0  0  0
   -0.3181   -2.9519    0.7312 O   0  0  0  0  0  0  0  0  0  0  0  0
   -1.0281   -0.9259    0.0662 N   0  0  0  0  0  0  0  0  0  0  0  0
   -1.8301   -0.3519   -0.1548 H   0  0  0  0  0  0  0  0  0  0  0  0
    0.2709   -0.2409    0.0912 C   0  0  1  0  0  0  0  0  0  0  0  0
    0.7693   -0.3987   -0.8655 H   0  0  0  0  0  0  0  0  0  0  0  0
    0.0621    1.2681    0.2735 C   0  0  0  0  0  0  0  0  0  0  0  0
    1.0245    1.7754    0.1872 H   0  0  0  0  0  0  0  0  0  0  0  0
   -0.6039    1.6411   -0.5066 H   0  0  0  0  0  0  0  0  0  0  0  0
   -0.4892    1.5515    1.5459 O   0  0  0  0  0  0  0  0  0  0  0  0
   -0.4422    2.5029    1.6896 H   0  0  0  0  0  0  0  0  0  0  0  0
    1.1672   -0.8226    1.1970 C   0  0  0  0  0  0  0  0  0  0  0  0
    1.3421   -0.1953    2.2424 O   0  0  0  0  0  0  0  0  0  0  0  0
    1.7243   -2.0188    0.9795 N   0  0  0  0  0  0  0  0  0  0  0  0
    1.5993   -2.4145    0.0571 H   0  0  0  0  0  0  0  0  0  0  0  0
    2.5827   -2.7221    1.9307 C   0  0  0  0  0  0  0  0  0  0  0  0
    2.1399   -2.6819    2.9282 H   0  0  0  0  0  0  0  0  0  0  0  0
    2.7005   -3.7641    1.6319 H   0  0  0  0  0  0  0  0  0  0  0  0
    3.5629   -2.2420    1.9640 H   0  0  0  0  0  0  0  0  0  0  0  0
  5  6  2  0  0  0  0
  5  7  1  0  0  0  0
  2  3  1  0  0  0  0
  2  4  1  0  0  0  0
  2  5  1  0  0  0  0
  1  2  1  0  0  0  0
 16 17  2  0  0  0  0
 16 18  1  0  0  0  0
 14 15  1  0  0  0  0
 11 12  1  0  0  0  0
 11 13  1  0  0  0  0
 11 14  1  0  0  0  0
  9 10  1  0  0  0  0
  9 11  1  0  0  0  0
  9 16  1  0  0  0  0
  7  8  1  0  0  0  0
  7  9  1  0  0  0  0
 20 21  1  0  0  0  0
 20 22  1  0  0  0  0
 20 23  1  0  0  0  0
 18 19  1  0  0  0  0
 18 20  1  0  0  0  0
M  END
$$$$
default_name
  -OEChem-01062215323D

 23 22  0     1  0  0  0  0  0999 V2000
   -2.6721   -3.7279    0.7212 H   0  0  0  0  0  0  0  0  0  0  0  0
   -2.6561   -2.6819    0.4162 C   0  0  0  0  0  0  0  0  0  0  0  0
   -3.2401   -2.0889    1.1172 H   0  0  0  0  0  0  0  0  0  0  0  0
   -3.0671   -2.5859   -0.5858 H   0  0  0  0  0  0  0  0  0  0  0  0
   -1.2261   -2.1939    0.4202 C   0  0  0  0  0  0  0  0  0  0  0  0
   -0.3181   -2.9519    0.7312 O   0  0  0  0  0  0  0  0  0  0  0  0
   -1.0281   -0.9259    0.0662 N   0  0  0  0  0  0  0  0  0  0  0  0
   -1.8301   -0.3519   -0.1548 H   0  0  0  0  0  0  0  0  0  0  0  0
    0.2709   -0.2409    0.0912 C   0  0  1  0  0  0  0  0  0  0  0  0
    0.7693   -0.3987   -0.8655 H   0  0  0  0  0  0  0  0  0  0  0  0
    0.0621    1.2681    0.2735 C   0  0  0  0  0  0  0  0  0  0  0  0
    1.0245    1.7754    0.1872 H   0  0  0  0  0  0  0  0  0  0  0  0
   -0.6039    1.6411   -0.5066 H   0  0  0  0  0  0  0  0  0  0  0  0
   -0.4892    1.5515    1.5459 O   0  0  0  0  0  0  0  0  0  0  0  0
   -0.4422    2.5029    1.6896 H   0  0  0  0  0  0  0  0  0  0  0  0
    1.1672   -0.8226    1.1970 C   0  0  0  0  0  0  0  0  0  0  0  0
    1.1293   -0.3498    2.3336 O   0  0  0  0  0  0  0  0  0  0  0  0
    1.9616   -1.8495    0.8762 N   0  0  0  0  0  0  0  0  0  0  0  0
    1.9932   -2.1083   -0.1010 H   0  0  0  0  0  0  0  0  0  0  0  0
    2.8573   -2.5313    1.8084 C   0  0  0  0  0  0  0  0  0  0  0  0
    2.3333   -2.7311    2.7455 H   0  0  0  0  0  0  0  0  0  0  0  0
    3.1993   -3.4740    1.3803 H   0  0  0  0  0  0  0  0  0  0  0  0
    3.7197   -1.8955    2.0192 H   0  0  0  0  0  0  0  0  0  0  0  0
  5  6  2  0  0  0  0
  5  7  1  0  0  0  0
  2  3  1  0  0  0  0
  2  4  1  0  0  0  0
  2  5  1  0  0  0  0
  1  2  1  0  0  0  0
 16 17  2  0  0  0  0
 16 18  1  0  0  0  0
 14 15  1  0  0  0  0
 11 12  1  0  0  0  0
 11 13  1  0  0  0  0
 11 14  1  0  0  0  0
  9 10  1  0  0  0  0
  9 11  1  0  0  0  0
  9 16  1  0  0  0  0
  7  8  1  0  0  0  0
  7  9  1  0  0  0  0
 20 21  1  0  0  0  0
 20 22  1  0  0  0  0
 20 23  1  0  0  0  0
 18 19  1  0  0  0  0
 18 20  1  0  0  0  0
M  END
$$$$
default_name
  -OEChem-01062215323D

 23 22  0     1  0  0  0  0  0999 V2000
   -2.6721   -3.7279    0.7212 H   0  0  0  0  0  0  0  0  0  0  0  0
   -2.6561   -2.6819    0.4162 C   0  0  0  0  0  0  0  0  0  0  0  0
   -3.2401   -2.0889    1.1172 H   0  0  0  0  0  0  0  0  0  0  0  0
   -3.0671   -2.5859   -0.5858 H   0  0  0  0  0  0  0  0  0  0  0  0
   -1.2261   -2.1939    0.4202 C   0  0  0  0  0  0  0  0  0  0  0  0
   -0.3181   -2.9519    0.7312 O   0  0  0  0  0  0  0  0  0  0  0  0
   -1.0281   -0.9259    0.0662 N   0  0  0  0  0  0  0  0  0  0  0  0
   -1.8301   -0.3519   -0.1548 H   0  0  0  0  0  0  0  0  0  0  0  0
    0.2709   -0.2409    0.0912 C   0  0  1  0  0  0  0  0  0  0  0  0
    0.7693   -0.3987   -0.8655 H   0  0  0  0  0  0  0  0  0  0  0  0
    0.0621    1.2681    0.2735 C   0  0  0  0  0  0  0  0  0  0  0  0
    1.0245    1.7754    0.1872 H   0  0  0  0  0  0  0  0  0  0  0  0
   -0.6039    1.6411   -0.5066 H   0  0  0  0  0  0  0  0  0  0  0  0
   -0.4892    1.5515    1.5459 O   0  0  0  0  0  0  0  0  0  0  0  0
   -0.4422    2.5029    1.6896 H   0  0  0  0  0  0  0  0  0  0  0  0
    1.1672   -0.8226    1.1970 C   0  0  0  0  0  0  0  0  0  0  0  0
    0.9435   -0.5524    2.3776 O   0  0  0  0  0  0  0  0  0  0  0  0
    2.1694   -1.6263    0.8251 N   0  0  0  0  0  0  0  0  0  0  0  0
    2.3321   -1.7154   -0.1691 H   0  0  0  0  0  0  0  0  0  0  0  0
    3.0990   -2.2774    1.7460 C   0  0  0  0  0  0  0  0  0  0  0  0
    2.5471   -2.7151    2.5806 H   0  0  0  0  0  0  0  0  0  0  0  0
    3.6516   -3.0630    1.2298 H   0  0  0  0  0  0  0  0  0  0  0  0
    3.8013   -1.5399    2.1401 H   0  0  0  0  0  0  0  0  0  0  0  0
  5  6  2  0  0  0  0
  5  7  1  0  0  0  0
  2  3  1  0  0  0  0
  2  4  1  0  0  0  0
  2  5  1  0  0  0  0
  1  2  1  0  0  0  0
 16 17  2  0  0  0  0
 16 18  1  0  0  0  0
 14 15  1  0  0  0  0
 11 12  1  0  0  0  0
 11 13  1  0  0  0  0
 11 14  1  0  0  0  0
  9 10  1  0  0  0  0
  9 11  1  0  0  0  0
  9 16  1  0  0  0  0
  7  8  1  0  0  0  0
  7  9  1  0  0  0  0
 20 21  1  0  0  0  0
 20 22  1  0  0  0  0
 20 23  1  0  0  0  0
 18 19  1  0  0  0  0
 18 20  1  0  0  0  0
M  END
$$$$
default_name
  -OEChem-01062215323D

 23 22  0     1  0  0  0  0  0999 V2000
   -2.6721   -3.7279    0.7212 H   0  0  0  0  0  0  0  0  0  0  0  0
   -2.6561   -2.6819    0.4162 C   0  0  0  0  0  0  0  0  0  0  0  0
   -3.2401   -2.0889    1.1172 H   0  0  0  0  0  0  0  0  0  0  0  0
   -3.0671   -2.5859   -0.5858 H   0  0  0  0  0  0  0  0  0  0  0  0
   -1.2261   -2.1939    0.4202 C   0  0  0  0  0  0  0  0  0  0  0  0
   -0.3181   -2.9519    0.7312 O   0  0  0  0  0  0  0  0  0  0  0  0
   -1.0281   -0.9259    0.0662 N   0  0  0  0  0  0  0  0  0  0  0  0
   -1.8301   -0.3519   -0.1548 H   0  0  0  0  0  0  0  0  0  0  0  0
    0.2709   -0.2409    0.0912 C   0  0  1  0  0  0  0  0  0  0  0  0
    0.7693   -0.3987   -0.8655 H   0  0  0  0  0  0  0  0  0  0  0  0
    0.0621    1.2681    0.2735 C   0  0  0  0  0  0  0  0  0  0  0  0
    1.0245    1.7754    0.1872 H   0  0  0  0  0  0  0  0  0  0  0  0
   -0.6039    1.6411   -0.5066 H   0  0  0  0  0  0  0  0  0  0  0  0
   -0.4892    1.5515    1.5459 O   0  0  0  0  0  0  0  0  0  0  0  0
   -0.4422    2.5029    1.6896 H   0  0  0  0  0  0  0  0  0  0  0  0
    1.1672   -0.8226    1.1970 C   0  0  0  0  0  0  0  0  0  0  0  0
    0.7975   -0.7893    2.3713 O   0  0  0  0  0  0  0  0  0  0  0  0
    2.3336   -1.3643    0.8299 N   0  0  0  0  0  0  0  0  0  0  0  0
    2.5930   -1.2625   -0.1423 H   0  0  0  0  0  0  0  0  0  0  0  0
    3.2914   -1.9778    1.7477 C   0  0  0  0  0  0  0  0  0  0  0  0
    2.7669   -2.6349    2.4447 H   0  0  0  0  0  0  0  0  0  0  0  0
    4.0268   -2.5591    1.1907 H   0  0  0  0  0  0  0  0  0  0  0  0
    3.8020   -1.1995    2.3185 H   0  0  0  0  0  0  0  0  0  0  0  0
  5  6  2  0  0  0  0
  5  7  1  0  0  0  0
  2  3  1  0  0  0  0
  2  4  1  0  0  0  0
  2  5  1  0  0  0  0
  1  2  1  0  0  0  0
 16 17  2  0  0  0  0
 16 18  1  0  0  0  0
 14 15  1  0  0  0  0
 11 12  1  0  0  0  0
 11 13  1  0  0  0  0
 11 14  1  0  0  0  0
  9 10  1  0  0  0  0
  9 11  1  0  0  0  0
  9 16  1  0  0  0  0
  7  8  1  0  0  0  0
  7  9  1  0  0  0  0
 20 21  1  0  0  0  0
 20 22  1  0  0  0  0
 20 23  1  0  0  0  0
 18 19  1  0  0  0  0
 18 20  1  0  0  0  0
M  END
$$$$
default_name
  -OEChem-01062215323D

 23 22  0     1  0  0  0  0  0999 V2000
   -2.6721   -3.7279    0.7212 H   0  0  0  0  0  0  0  0  0  0  0  0
   -2.6561   -2.6819    0.4162 C   0  0  0  0  0  0  0  0  0  0  0  0
   -3.2401   -2.0889    1.1172 H   0  0  0  0  0  0  0  0  0  0  0  0
   -3.0671   -2.5859   -0.5858 H   0  0  0  0  0  0  0  0  0  0  0  0
   -1.2261   -2.1939    0.4202 C   0  0  0  0  0  0  0  0  0  0  0  0
   -0.3181   -2.9519    0.7312 O   0  0  0  0  0  0  0  0  0  0  0  0
   -1.0281   -0.9259    0.0662 N   0  0  0  0  0  0  0  0  0  0  0  0
   -1.8301   -0.3519   -0.1548 H   0  0  0  0  0  0  0  0  0  0  0  0
    0.2709   -0.2409    0.0912 C   0  0  1  0  0  0  0  0  0  0  0  0
    0.7693   -0.3987   -0.8655 H   0  0  0  0  0  0  0  0  0  0  0  0
    0.0621    1.2681    0.2735 C   0  0  0  0  0  0  0  0  0  0  0  0
    1.0245    1.7754    0.1872 H   0  0  0  0  0  0  0  0  0  0  0  0
   -0.6039    1.6411   -0.5066 H   0  0  0  0  0  0  0  0  0  0  0  0
   -0.4892    1.5515    1.5459 O   0  0  0  0  0  0  0  0  0  0  0  0
   -0.4422    2.5029    1.6896 H   0  0  0  0  0  0  0  0  0  0  0  0
    1.1672   -0.8226    1.1970 C   0  0  0  0  0  0  0  0  0  0  0  0
    0.7012   -1.0443    2.3152 O   0  0  0  0  0  0  0  0  0  0  0  0
    2.4429   -1.0813    0.8901 N   0  0  0  0  0  0  0  0  0  0  0  0
    2.7581   -0.7805   -0.0226 H   0  0  0  0  0  0  0  0  0  0  0  0
    3.4212   -1.6529    1.8133 C   0  0  0  0  0  0  0  0  0  0  0  0
    2.9775   -2.4961    2.3470 H   0  0  0  0  0  0  0  0  0  0  0  0
    4.2993   -1.9966    1.2657 H   0  0  0  0  0  0  0  0  0  0  0  0
    3.7220   -0.8975    2.5422 H   0  0  0  0  0  0  0  0  0  0  0  0
  5  6  2  0  0  0  0
  5  7  1  0  0  0  0
  2  3  1  0  0  0  0
  2  4  1  0  0  0  0
  2  5  1  0  0  0  0
  1  2  1  0  0  0  0
 16 17  2  0  0  0  0
 16 18  1  0  0  0  0
 14 15  1  0  0  0  0
 11 12  1  0  0  0  0
 11 13  1  0  0  0  0
 11 14  1  0  0  0  0
  9 10  1  0  0  0  0
  9 11  1  0  0  0  0
  9 16  1  0  0  0  0
  7  8  1  0  0  0  0
  7  9  1  0  0  0  0
 20 21  1  0  0  0  0
 20 22  1  0  0  0  0
 20 23  1  0  0  0  0
 18 19  1  0  0  0  0
 18 20  1  0  0  0  0
M  END
$$$$
default_name
  -OEChem-01062215323D

 23 22  0     1  0  0  0  0  0999 V2000
   -2.6721   -3.7279    0.7212 H   0  0  0  0  0  0  0  0  0  0  0  0
   -2.6561   -2.6819    0.4162 C   0  0  0  0  0  0  0  0  0  0  0  0
   -3.2401   -2.0889    1.1172 H   0  0  0  0  0  0  0  0  0  0  0  0
   -3.0671   -2.5859   -0.5858 H   0  0  0  0  0  0  0  0  0  0  0  0
   -1.2261   -2.1939    0.4202 C   0  0  0  0  0  0  0  0  0  0  0  0
   -0.3181   -2.9519    0.7312 O   0  0  0  0  0  0  0  0  0  0  0  0
   -1.0281   -0.9259    0.0662 N   0  0  0  0  0  0  0  0  0  0  0  0
   -1.8301   -0.3519   -0.1548 H   0  0  0  0  0  0  0  0  0  0  0  0
    0.2709   -0.2409    0.0912 C   0  0  1  0  0  0  0  0  0  0  0  0
    0.7693   -0.3987   -0.8655 H   0  0  0  0  0  0  0  0  0  0  0  0
    0.0621    1.2681    0.2735 C   0  0  0  0  0  0  0  0  0  0  0  0
    1.0245    1.7754    0.1872 H   0  0  0  0  0  0  0  0  0  0  0  0
   -0.6039    1.6411   -0.5066 H   0  0  0  0  0  0  0  0  0  0  0  0
   -0.4892    1.5515    1.5459 O   0  0  0  0  0  0  0  0  0  0  0  0
   -0.4422    2.5029    1.6896 H   0  0  0  0  0  0  0  0  0  0  0  0
    1.1672   -0.8226    1.1970 C   0  0  0  0  0  0  0  0  0  0  0  0
    0.6611   -1.3002    2.2131 O   0  0  0  0  0  0  0  0  0  0  0  0
    2.4900   -0.7968    1.0016 N   0  0  0  0  0  0  0  0  0  0  0  0
    2.8162   -0.3023    0.1819 H   0  0  0  0  0  0  0  0  0  0  0  0
    3.4798   -1.3248    1.9385 C   0  0  0  0  0  0  0  0  0  0  0  0
    3.1647   -2.3081    2.2942 H   0  0  0  0  0  0  0  0  0  0  0  0
    4.4504   -1.4139    1.4497 H   0  0  0  0  0  0  0  0  0  0  0  0
    3.5665   -0.6544    2.7961 H   0  0  0  0  0  0  0  0  0  0  0  0
  5  6  2  0  0  0  0
  5  7  1  0  0  0  0
  2  3  1  0  0  0  0
  2  4  1  0  0  0  0
  2  5  1  0  0  0  0
  1  2  1  0  0  0  0
 16 17  2  0  0  0  0
 16 18  1  0  0  0  0
 14 15  1  0  0  0  0
 11 12  1  0  0  0  0
 11 13  1  0  0  0  0
 11 14  1  0  0  0  0
  9 10  1  0  0  0  0
  9 11  1  0  0  0  0
  9 16  1  0  0  0  0
  7  8  1  0  0  0  0
  7  9  1  0  0  0  0
 20 21  1  0  0  0  0
 20 22  1  0  0  0  0
 20 23  1  0  0  0  0
 18 19  1  0  0  0  0
 18 20  1  0  0  0  0
M  END
$$$$
default_name
  -OEChem-01062215323D

 23 22  0     1  0  0  0  0  0999 V2000
   -2.6721   -3.7279    0.7212 H   0  0  0  0  0  0  0  0  0  0  0  0
   -2.6561   -2.6819    0.4162 C   0  0  0  0  0  0  0  0  0  0  0  0
   -3.2401   -2.0889    1.1172 H   0  0  0  0  0  0  0  0  0  0  0  0
   -3.0671   -2.5859   -0.5858 H   0  0  0  0  0  0  0  0  0  0  0  0
   -1.2261   -2.1939    0.4202 C   0  0  0  0  0  0  0  0  0  0  0  0
   -0.3181   -2.9519    0.7312 O   0  0  0  0  0  0  0  0  0  0  0  0
   -1.0281   -0.9259    0.0662 N   0  0  0  0  0  0  0  0  0  0  0  0
   -1.8301   -0.3519   -0.1548 H   0  0  0  0  0  0  0  0  0  0  0  0
    0.2709   -0.2409    0.0912 C   0  0  1  0  0  0  0  0  0  0  0  0
    0.7693   -0.3987   -0.8655 H   0  0  0  0  0  0  0  0  0  0  0  0
    0.0621    1.2681    0.2735 C   0  0  0  0  0  0  0  0  0  0  0  0
    1.0245    1.7754    0.1872 H   0  0  0  0  0  0  0  0  0  0  0  0
   -0.6039    1.6411   -0.5066 H   0  0  0  0  0  0  0  0  0  0  0  0
   -0.4892    1.5515    1.5459 O   0  0  0  0  0  0  0  0  0  0  0  0
   -0.4422    2.5029    1.6896 H   0  0  0  0  0  0  0  0  0  0  0  0
    1.1672   -0.8226    1.1970 C   0  0  0  0  0  0  0  0  0  0  0  0
    0.6800   -1.5393    2.0720 O   0  0  0  0  0  0  0  0  0  0  0  0
    2.4716   -0.5300    1.1568 N   0  0  0  0  0  0  0  0  0  0  0  0
    2.7632    0.1396    0.4572 H   0  0  0  0  0  0  0  0  0  0  0  0
    3.4630   -1.0158    2.1146 C   0  0  0  0  0  0  0  0  0  0  0  0
    3.3156   -2.0836    2.2899 H   0  0  0  0  0  0  0  0  0  0  0  0
    4.4699   -0.8507    1.7302 H   0  0  0  0  0  0  0  0  0  0  0  0
    3.3463   -0.4869    3.0628 H   0  0  0  0  0  0  0  0  0  0  0  0
  5  6  2  0  0  0  0
  5  7  1  0  0  0  0
  2  3  1  0  0  0  0
  2  4  1  0  0  0  0
  2  5  1  0  0  0  0
  1  2  1  0  0  0  0
 16 17  2  0  0  0  0
 16 18  1  0  0  0  0
 14 15  1  0  0  0  0
 11 12  1  0  0  0  0
 11 13  1  0  0  0  0
 11 14  1  0  0  0  0
  9 10  1  0  0  0  0
  9 11  1  0  0  0  0
  9 16  1  0  0  0  0
  7  8  1  0  0  0  0
  7  9  1  0  0  0  0
 20 21  1  0  0  0  0
 20 22  1  0  0  0  0
 20 23  1  0  0  0  0
 18 19  1  0  0  0  0
 18 20  1  0  0  0  0
M  END
$$$$
default_name
  -OEChem-01062215323D

 23 22  0     1  0  0  0  0  0999 V2000
   -2.6721   -3.7279    0.7212 H   0  0  0  0  0  0  0  0  0  0  0  0
   -2.6561   -2.6819    0.4162 C   0  0  0  0  0  0  0  0  0  0  0  0
   -3.2401   -2.0889    1.1172 H   0  0  0  0  0  0  0  0  0  0  0  0
   -3.0671   -2.5859   -0.5858 H   0  0  0  0  0  0  0  0  0  0  0  0
   -1.2261   -2.1939    0.4202 C   0  0  0  0  0  0  0  0  0  0  0  0
   -0.3181   -2.9519    0.7312 O   0  0  0  0  0  0  0  0  0  0  0  0
   -1.0281   -0.9259    0.0662 N   0  0  0  0  0  0  0  0  0  0  0  0
   -1.8301   -0.3519   -0.1548 H   0  0  0  0  0  0  0  0  0  0  0  0
    0.2709   -0.2409    0.0912 C   0  0  1  0  0  0  0  0  0  0  0  0
    0.6481   -0.1666   -0.9290 H   0  0  0  0  0  0  0  0  0  0  0  0
    0.1004    1.1823    0.6382 C   0  0  0  0  0  0  0  0  0  0  0  0
    1.0500    1.7136    0.5554 H   0  0  0  0  0  0  0  0  0  0  0  0
   -0.6517    1.7114    0.0502 H   0  0  0  0  0  0  0  0  0  0  0  0
   -0.2899    1.1571    1.9985 O   0  0  0  0  0  0  0  0  0  0  0  0
   -0.2167    2.0511    2.3497 H   0  0  0  0  0  0  0  0  0  0  0  0
    1.2890   -1.0433    0.9183 C   0  0  0  0  0  0  0  0  0  0  0  0
    0.9580   -2.1104    1.4366 O   0  0  0  0  0  0  0  0  0  0  0  0
    2.5247   -0.5452    1.0346 N   0  0  0  0  0  0  0  0  0  0  0  0
    2.6769    0.3794    0.6540 H   0  0  0  0  0  0  0  0  0  0  0  0
    3.6155   -1.1881    1.7647 C   0  0  0  0  0  0  0  0  0  0  0  0
    3.6532   -2.2502    1.5134 H   0  0  0  0  0  0  0  0  0  0  0  0
    4.5672   -0.7237    1.5049 H   0  0  0  0  0  0  0  0  0  0  0  0
    3.4457   -1.0892    2.8389 H   0  0  0  0  0  0  0  0  0  0  0  0
  5  6  2  0  0  0  0
  5  7  1  0  0  0  0
  2  3  1  0  0  0  0
  2  4  1  0  0  0  0
  2  5  1  0  0  0  0
  1  2  1  0  0  0  0
 16 17  2  0  0  0  0
 16 18  1  0  0  0  0
 14 15  1  0  0  0  0
 11 12  1  0  0  0  0
 11 13  1  0  0  0  0
 11 14  1  0  0  0  0
  9 10  1  0  0  0  0
  9 11  1  0  0  0  0
  9 16  1  0  0  0  0
  7  8  1  0  0  0  0
  7  9  1  0  0  0  0
 20 21  1  0  0  0  0
 20 22  1  0  0  0  0
 20 23  1  0  0  0  0
 18 19  1  0  0  0  0
 18 20  1  0  0  0  0
M  END
$$$$
default_name
  -OEChem-01062215323D

 23 22  0     1  0  0  0  0  0999 V2000
   -2.6721   -3.7279    0.7212 H   0  0  0  0  0  0  0  0  0  0  0  0
   -2.6561   -2.6819    0.4162 C   0  0  0  0  0  0  0  0  0  0  0  0
   -3.2401   -2.0889    1.1172 H   0  0  0  0  0  0  0  0  0  0  0  0
   -3.0671   -2.5859   -0.5858 H   0  0  0  0  0  0  0  0  0  0  0  0
   -1.2261   -2.1939    0.4202 C   0  0  0  0  0  0  0  0  0  0  0  0
   -0.3181   -2.9519    0.7312 O   0  0  0  0  0  0  0  0  0  0  0  0
   -1.0281   -0.9259    0.0662 N   0  0  0  0  0  0  0  0  0  0  0  0
   -1.8301   -0.3519   -0.1548 H   0  0  0  0  0  0  0  0  0  0  0  0
    0.2709   -0.2409    0.0912 C   0  0  1  0  0  0  0  0  0  0  0  0
    0.6481   -0.1666   -0.9290 H   0  0  0  0  0  0  0  0  0  0  0  0
    0.1004    1.1823    0.6382 C   0  0  0  0  0  0  0  0  0  0  0  0
    1.0500    1.7136    0.5554 H   0  0  0  0  0  0  0  0  0  0  0  0
   -0.6517    1.7114    0.0502 H   0  0  0  0  0  0  0  0  0  0  0  0
   -0.2899    1.1571    1.9985 O   0  0  0  0  0  0  0  0  0  0  0  0
   -0.2167    2.0511    2.3497 H   0  0  0  0  0  0  0  0  0  0  0  0
    1.2890   -1.0433    0.9183 C   0  0  0  0  0  0  0  0  0  0  0  0
    1.0617   -2.2199    1.2027 O   0  0  0  0  0  0  0  0  0  0  0  0
    2.4115   -0.4211    1.2943 N   0  0  0  0  0  0  0  0  0  0  0  0
    2.4680    0.5688    1.0949 H   0  0  0  0  0  0  0  0  0  0  0  0
    3.4888   -1.0412    2.0632 C   0  0  0  0  0  0  0  0  0  0  0  0
    3.7171   -2.0267    1.6517 H   0  0  0  0  0  0  0  0  0  0  0  0
    4.3841   -0.4200    2.0249 H   0  0  0  0  0  0  0  0  0  0  0  0
    3.1753   -1.1607    3.1024 H   0  0  0  0  0  0  0  0  0  0  0  0
  5  6  2  0  0  0  0
  5  7  1  0  0  0  0
  2  3  1  0  0  0  0
  2  4  1  0  0  0  0
  2  5  1  0  0  0  0
  1  2  1  0  0  0  0
 16 17  2  0  0  0  0
 16 18  1  0  0  0  0
 14 15  1  0  0  0  0
 11 12  1  0  0  0  0
 11 13  1  0  0  0  0
 11 14  1  0  0  0  0
  9 10  1  0  0  0  0
  9 11  1  0  0  0  0
  9 16  1  0  0  0  0
  7  8  1  0  0  0  0
  7  9  1  0  0  0  0
 20 21  1  0  0  0  0
 20 22  1  0  0  0  0
 20 23  1  0  0  0  0
 18 19  1  0  0  0  0
 18 20  1  0  0  0  0
M  END
$$$$
default_name
  -OEChem-01062215323D

 23 22  0     1  0  0  0  0  0999 V2000
   -2.6721   -3.7279    0.7212 H   0  0  0  0  0  0  0  0  0  0  0  0
   -2.6561   -2.6819    0.4162 C   0  0  0  0  0  0  0  0  0  0  0  0
   -3.2401   -2.0889    1.1172 H   0  0  0  0  0  0  0  0  0  0  0  0
   -3.0671   -2.5859   -0.5858 H   0  0  0  0  0  0  0  0  0  0  0  0
   -1.2261   -2.1939    0.4202 C   0  0  0  0  0  0  0  0  0  0  0  0
   -0.3181   -2.9519    0.7312 O   0  0  0  0  0  0  0  0  0  0  0  0
   -1.0281   -0.9259    0.0662 N   0  0  0  0  0  0  0  0  0  0  0  0
   -1.8301   -0.3519   -0.1548 H   0  0  0  0  0  0  0  0  0  0  0  0
    0.2709   -0.2409    0.0912 C   0  0  1  0  0  0  0  0  0  0  0  0
    0.6481   -0.1666   -0.9290 H   0  0  0  0  0  0  0  0  0  0  0  0
    0.1004    1.1823    0.6382 C   0  0  0  0  0  0  0  0  0  0  0  0
    1.0500    1.7136    0.5554 H   0  0  0  0  0  0  0  0  0  0  0  0
   -0.6517    1.7114    0.0502 H   0  0  0  0  0  0  0  0  0  0  0  0
   -0.2899    1.1571    1.9985 O   0  0  0  0  0  0  0  0  0  0  0  0
   -0.2167    2.0511    2.3497 H   0  0  0  0  0  0  0  0  0  0  0  0
    1.2890   -1.0433    0.9183 C   0  0  0  0  0  0  0  0  0  0  0  0
    1.2087   -2.2711    0.9719 O   0  0  0  0  0  0  0  0  0  0  0  0
    2.2499   -0.3615    1.5511 N   0  0  0  0  0  0  0  0  0  0  0  0
    2.1804    0.6471    1.5250 H   0  0  0  0  0  0  0  0  0  0  0  0
    3.3056   -0.9681    2.3597 C   0  0  0  0  0  0  0  0  0  0  0  0
    3.7289   -1.8255    1.8322 H   0  0  0  0  0  0  0  0  0  0  0  0
    4.0947   -0.2412    2.5546 H   0  0  0  0  0  0  0  0  0  0  0  0
    2.8884   -1.3126    3.3082 H   0  0  0  0  0  0  0  0  0  0  0  0
  5  6  2  0  0  0  0
  5  7  1  0  0  0  0
  2  3  1  0  0  0  0
  2  4  1  0  0  0  0
  2  5  1  0  0  0  0
  1  2  1  0  0  0  0
 16 17  2  0  0  0  0
 16 18  1  0  0  0  0
 14 15  1  0  0  0  0
 11 12  1  0  0  0  0
 11 13  1  0  0  0  0
 11 14  1  0  0  0  0
  9 10  1  0  0  0  0
  9 11  1  0  0  0  0
  9 16  1  0  0  0  0
  7  8  1  0  0  0  0
  7  9  1  0  0  0  0
 20 21  1  0  0  0  0
 20 22  1  0  0  0  0
 20 23  1  0  0  0  0
 18 19  1  0  0  0  0
 18 20  1  0  0  0  0
M  END
$$$$
default_name
  -OEChem-01062215323D

 23 22  0     1  0  0  0  0  0999 V2000
   -2.6721   -3.7279    0.7212 H   0  0  0  0  0  0  0  0  0  0  0  0
   -2.6561   -2.6819    0.4162 C   0  0  0  0  0  0  0  0  0  0  0  0
   -3.2401   -2.0889    1.1172 H   0  0  0  0  0  0  0  0  0  0  0  0
   -3.0671   -2.5859   -0.5858 H   0  0  0  0  0  0  0  0  0  0  0  0
   -1.2261   -2.1939    0.4202 C   0  0  0  0  0  0  0  0  0  0  0  0
   -0.3181   -2.9519    0.7312 O   0  0  0  0  0  0  0  0  0  0  0  0
   -1.0281   -0.9259    0.0662 N   0  0  0  0  0  0  0  0  0  0  0  0
   -1.8301   -0.3519   -0.1548 H   0  0  0  0  0  0  0  0  0  0  0  0
    0.2709   -0.2409    0.0912 C   0  0  1  0  0  0  0  0  0  0  0  0
    0.6481   -0.1666   -0.9290 H   0  0  0  0  0  0  0  0  0  0  0  0
    0.1004    1.1823    0.6382 C   0  0  0  0  0  0  0  0  0  0  0  0
    1.0500    1.7136    0.5554 H   0  0  0  0  0  0  0  0  0  0  0  0
   -0.6517    1.7114    0.0502 H   0  0  0  0  0  0  0  0  0  0  0  0
   -0.2899    1.1571    1.9985 O   0  0  0  0  0  0  0  0  0  0  0  0
   -0.2167    2.0511    2.3497 H   0  0  0  0  0  0  0  0  0  0  0  0
    1.2890   -1.0433    0.9183 C   0  0  0  0  0  0  0  0  0  0  0  0
    1.3890   -2.2606    0.7602 O   0  0  0  0  0  0  0  0  0  0  0  0
    2.0508   -0.3705    1.7875 N   0  0  0  0  0  0  0  0  0  0  0  0
    1.8335    0.6090    1.9150 H   0  0  0  0  0  0  0  0  0  0  0  0
    3.0785   -0.9737    2.6338 C   0  0  0  0  0  0  0  0  0  0  0  0
    3.6880   -1.6606    2.0427 H   0  0  0  0  0  0  0  0  0  0  0  0
    3.7188   -0.1996    3.0577 H   0  0  0  0  0  0  0  0  0  0  0  0
    2.6047   -1.5345    3.4422 H   0  0  0  0  0  0  0  0  0  0  0  0
  5  6  2  0  0  0  0
  5  7  1  0  0  0  0
  2  3  1  0  0  0  0
  2  4  1  0  0  0  0
  2  5  1  0  0  0  0
  1  2  1  0  0  0  0
 16 17  2  0  0  0  0
 16 18  1  0  0  0  0
 14 15  1  0  0  0  0
 11 12  1  0  0  0  0
 11 13  1  0  0  0  0
 11 14  1  0  0  0  0
  9 10  1  0  0  0  0
  9 11  1  0  0  0  0
  9 16  1  0  0  0  0
  7  8  1  0  0  0  0
  7  9  1  0  0  0  0
 20 21  1  0  0  0  0
 20 22  1  0  0  0  0
 20 23  1  0  0  0  0
 18 19  1  0  0  0  0
 18 20  1  0  0  0  0
M  END
$$$$
default_name
  -OEChem-01062215323D

 23 22  0     1  0  0  0  0  0999 V2000
   -2.6721   -3.7279    0.7212 H   0  0  0  0  0  0  0  0  0  0  0  0
   -2.6561   -2.6819    0.4162 C   0  0  0  0  0  0  0  0  0  0  0  0
   -3.2401   -2.0889    1.1172 H   0  0  0  0  0  0  0  0  0  0  0  0
   -3.0671   -2.5859   -0.5858 H   0  0  0  0  0  0  0  0  0  0  0  0
   -1.2261   -2.1939    0.4202 C   0  0  0  0  0  0  0  0  0  0  0  0
   -0.3181   -2.9519    0.7312 O   0  0  0  0  0  0  0  0  0  0  0  0
   -1.0281   -0.9259    0.0662 N   0  0  0  0  0  0  0  0  0  0  0  0
   -1.8301   -0.3519   -0.1548 H   0  0  0  0  0  0  0  0  0  0  0  0
    0.2709   -0.2409    0.0912 C   0  0  1  0  0  0  0  0  0  0  0  0
    0.6481   -0.1666   -0.9290 H   0  0  0  0  0  0  0  0  0  0  0  0
    0.1004    1.1823    0.6382 C   0  0  0  0  0  0  0  0  0  0  0  0
    1.0500    1.7136    0.5554 H   0  0  0  0  0  0  0  0  0  0  0  0
   -0.6517    1.7114    0.0502 H   0  0  0  0  0  0  0  0  0  0  0  0
   -0.2899    1.1571    1.9985 O   0  0  0  0  0  0  0  0  0  0  0  0
   -0.2167    2.0511    2.3497 H   0  0  0  0  0  0  0  0  0  0  0  0
    1.2890   -1.0433    0.9183 C   0  0  0  0  0  0  0  0  0  0  0  0
    1.5903   -2.1891    0.5818 O   0  0  0  0  0  0  0  0  0  0  0  0
    1.8278   -0.4473    1.9875 N   0  0  0  0  0  0  0  0  0  0  0  0
    1.4511    0.4571    2.2384 H   0  0  0  0  0  0  0  0  0  0  0  0
    2.8228   -1.0578    2.8669 C   0  0  0  0  0  0  0  0  0  0  0  0
    3.5970   -1.5430    2.2687 H   0  0  0  0  0  0  0  0  0  0  0  0
    3.2819   -0.2980    3.5001 H   0  0  0  0  0  0  0  0  0  0  0  0
    2.3434   -1.8113    3.4952 H   0  0  0  0  0  0  0  0  0  0  0  0
  5  6  2  0  0  0  0
  5  7  1  0  0  0  0
  2  3  1  0  0  0  0
  2  4  1  0  0  0  0
  2  5  1  0  0  0  0
  1  2  1  0  0  0  0
 16 17  2  0  0  0  0
 16 18  1  0  0  0  0
 14 15  1  0  0  0  0
 11 12  1  0  0  0  0
 11 13  1  0  0  0  0
 11 14  1  0  0  0  0
  9 10  1  0  0  0  0
  9 11  1  0  0  0  0
  9 16  1  0  0  0  0
  7  8  1  0  0  0  0
  7  9  1  0  0  0  0
 20 21  1  0  0  0  0
 20 22  1  0  0  0  0
 20 23  1  0  0  0  0
 18 19  1  0  0  0  0
 18 20  1  0  0  0  0
M  END
$$$$
default_name
  -OEChem-01062215323D

 23 22  0     1  0  0  0  0  0999 V2000
   -2.6721   -3.7279    0.7212 H   0  0  0  0  0  0  0  0  0  0  0  0
   -2.6561   -2.6819    0.4162 C   0  0  0  0  0  0  0  0  0  0  0  0
   -3.2401   -2.0889    1.1172 H   0  0  0  0  0  0  0  0  0  0  0  0
   -3.0671   -2.5859   -0.5858 H   0  0  0  0  0  0  0  0  0  0  0  0
   -1.2261   -2.1939    0.4202 C   0  0  0  0  0  0  0  0  0  0  0  0
   -0.3181   -2.9519    0.7312 O   0  0  0  0  0  0  0  0  0  0  0  0
   -1.0281   -0.9259    0.0662 N   0  0  0  0  0  0  0  0  0  0  0  0
   -1.8301   -0.3519   -0.1548 H   0  0  0  0  0  0  0  0  0  0  0  0
    0.2709   -0.2409    0.0912 C   0  0  1  0  0  0  0  0  0  0  0  0
    0.6481   -0.1666   -0.9290 H   0  0  0  0  0  0  0  0  0  0  0  0
    0.1004    1.1823    0.6382 C   0  0  0  0  0  0  0  0  0  0  0  0
    1.0500    1.7136    0.5554 H   0  0  0  0  0  0  0  0  0  0  0  0
   -0.6517    1.7114    0.0502 H   0  0  0  0  0  0  0  0  0  0  0  0
   -0.2899    1.1571    1.9985 O   0  0  0  0  0  0  0  0  0  0  0  0
   -0.2167    2.0511    2.3497 H   0  0  0  0  0  0  0  0  0  0  0  0
    1.2890   -1.0433    0.9183 C   0  0  0  0  0  0  0  0  0  0  0  0
    1.7989   -2.0614    0.4489 O   0  0  0  0  0  0  0  0  0  0  0  0
    1.5960   -0.5869    2.1373 N   0  0  0  0  0  0  0  0  0  0  0  0
    1.0591    0.2017    2.4730 H   0  0  0  0  0  0  0  0  0  0  0  0
    2.5561   -1.2145    3.0431 C   0  0  0  0  0  0  0  0  0  0  0  0
    3.4623   -1.4808    2.4949 H   0  0  0  0  0  0  0  0  0  0  0  0
    2.8138   -0.5296    3.8515 H   0  0  0  0  0  0  0  0  0  0  0  0
    2.1224   -2.1241    3.4638 H   0  0  0  0  0  0  0  0  0  0  0  0
  5  6  2  0  0  0  0
  5  7  1  0  0  0  0
  2  3  1  0  0  0  0
  2  4  1  0  0  0  0
  2  5  1  0  0  0  0
  1  2  1  0  0  0  0
 16 17  2  0  0  0  0
 16 18  1  0  0  0  0
 14 15  1  0  0  0  0
 11 12  1  0  0  0  0
 11 13  1  0  0  0  0
 11 14  1  0  0  0  0
  9 10  1  0  0  0  0
  9 11  1  0  0  0  0
  9 16  1  0  0  0  0
  7  8  1  0  0  0  0
  7  9  1  0  0  0  0
 20 21  1  0  0  0  0
 20 22  1  0  0  0  0
 20 23  1  0  0  0  0
 18 19  1  0  0  0  0
 18 20  1  0  0  0  0
M  END
$$$$
default_name
  -OEChem-01062215323D

 23 22  0     1  0  0  0  0  0999 V2000
   -2.6721   -3.7279    0.7212 H   0  0  0  0  0  0  0  0  0  0  0  0
   -2.6561   -2.6819    0.4162 C   0  0  0  0  0  0  0  0  0  0  0  0
   -3.2401   -2.0889    1.1172 H   0  0  0  0  0  0  0  0  0  0  0  0
   -3.0671   -2.5859   -0.5858 H   0  0  0  0  0  0  0  0  0  0  0  0
   -1.2261   -2.1939    0.4202 C   0  0  0  0  0  0  0  0  0  0  0  0
   -0.3181   -2.9519    0.7312 O   0  0  0  0  0  0  0  0  0  0  0  0
   -1.0281   -0.9259    0.0662 N   0  0  0  0  0  0  0  0  0  0  0  0
   -1.8301   -0.3519   -0.1548 H   0  0  0  0  0  0  0  0  0  0  0  0
    0.2709   -0.2409    0.0912 C   0  0  1  0  0  0  0  0  0  0  0  0
    0.6481   -0.1666   -0.9290 H   0  0  0  0  0  0  0  0  0  0  0  0
    0.1004    1.1823    0.6382 C   0  0  0  0  0  0  0  0  0  0  0  0
    1.0500    1.7136    0.5554 H   0  0  0  0  0  0  0  0  0  0  0  0
   -0.6517    1.7114    0.0502 H   0  0  0  0  0  0  0  0  0  0  0  0
   -0.2899    1.1571    1.9985 O   0  0  0  0  0  0  0  0  0  0  0  0
   -0.2167    2.0511    2.3497 H   0  0  0  0  0  0  0  0  0  0  0  0
    1.2890   -1.0433    0.9183 C   0  0  0  0  0  0  0  0  0  0  0  0
    2.0006   -1.8862    0.3706 O   0  0  0  0  0  0  0  0  0  0  0  0
    1.3714   -0.7796    2.2268 N   0  0  0  0  0  0  0  0  0  0  0  0
    0.6844   -0.1398    2.6030 H   0  0  0  0  0  0  0  0  0  0  0  0
    2.2965   -1.4332    3.1505 C   0  0  0  0  0  0  0  0  0  0  0  0
    3.2930   -1.4782    2.7058 H   0  0  0  0  0  0  0  0  0  0  0  0
    2.3465   -0.8787    4.0880 H   0  0  0  0  0  0  0  0  0  0  0  0
    1.9567   -2.4516    3.3499 H   0  0  0  0  0  0  0  0  0  0  0  0
  5  6  2  0  0  0  0
  5  7  1  0  0  0  0
  2  3  1  0  0  0  0
  2  4  1  0  0  0  0
  2  5  1  0  0  0  0
  1  2  1  0  0  0  0
 16 17  2  0  0  0  0
 16 18  1  0  0  0  0
 14 15  1  0  0  0  0
 11 12  1  0  0  0  0
 11 13  1  0  0  0  0
 11 14  1  0  0  0  0
  9 10  1  0  0  0  0
  9 11  1  0  0  0  0
  9 16  1  0  0  0  0
  7  8  1  0  0  0  0
  7  9  1  0  0  0  0
 20 21  1  0  0  0  0
 20 22  1  0  0  0  0
 20 23  1  0  0  0  0
 18 19  1  0  0  0  0
 18 20  1  0  0  0  0
M  END
$$$$
default_name
  -OEChem-01062215323D

 23 22  0     1  0  0  0  0  0999 V2000
   -2.6721   -3.7279    0.7212 H   0  0  0  0  0  0  0  0  0  0  0  0
   -2.6561   -2.6819    0.4162 C   0  0  0  0  0  0  0  0  0  0  0  0
   -3.2401   -2.0889    1.1172 H   0  0  0  0  0  0  0  0  0  0  0  0
   -3.0671   -2.5859   -0.5858 H   0  0  0  0  0  0  0  0  0  0  0  0
   -1.2261   -2.1939    0.4202 C   0  0  0  0  0  0  0  0  0  0  0  0
   -0.3181   -2.9519    0.7312 O   0  0  0  0  0  0  0  0  0  0  0  0
   -1.0281   -0.9259    0.0662 N   0  0  0  0  0  0  0  0  0  0  0  0
   -1.8301   -0.3519   -0.1548 H   0  0  0  0  0  0  0  0  0  0  0  0
    0.2709   -0.2409    0.0912 C   0  0  1  0  0  0  0  0  0  0  0  0
    0.6481   -0.1666   -0.9290 H   0  0  0  0  0  0  0  0  0  0  0  0
    0.1004    1.1823    0.6382 C   0  0  0  0  0  0  0  0  0  0  0  0
    1.0500    1.7136    0.5554 H   0  0  0  0  0  0  0  0  0  0  0  0
   -0.6517    1.7114    0.0502 H   0  0  0  0  0  0  0  0  0  0  0  0
   -0.2899    1.1571    1.9985 O   0  0  0  0  0  0  0  0  0  0  0  0
   -0.2167    2.0511    2.3497 H   0  0  0  0  0  0  0  0  0  0  0  0
    1.2890   -1.0433    0.9183 C   0  0  0  0  0  0  0  0  0  0  0  0
    2.1816   -1.6755    0.3522 O   0  0  0  0  0  0  0  0  0  0  0  0
    1.1692   -1.0124    2.2499 N   0  0  0  0  0  0  0  0  0  0  0  0
    0.3525   -0.5440    2.6194 H   0  0  0  0  0  0  0  0  0  0  0  0
    2.0617   -1.6990    3.1817 C   0  0  0  0  0  0  0  0  0  0  0  0
    3.1005   -1.5355    2.8871 H   0  0  0  0  0  0  0  0  0  0  0  0
    1.9118   -1.3215    4.1936 H   0  0  0  0  0  0  0  0  0  0  0  0
    1.8577   -2.7716    3.1615 H   0  0  0  0  0  0  0  0  0  0  0  0
  5  6  2  0  0  0  0
  5  7  1  0  0  0  0
  2  3  1  0  0  0  0
  2  4  1  0  0  0  0
  2  5  1  0  0  0  0
  1  2  1  0  0  0  0
 16 17  2  0  0  0  0
 16 18  1  0  0  0  0
 14 15  1  0  0  0  0
 11 12  1  0  0  0  0
 11 13  1  0  0  0  0
 11 14  1  0  0  0  0
  9 10  1  0  0  0  0
  9 11  1  0  0  0  0
  9 16  1  0  0  0  0
  7  8  1  0  0  0  0
  7  9  1  0  0  0  0
 20 21  1  0  0  0  0
 20 22  1  0  0  0  0
 20 23  1  0  0  0  0
 18 19  1  0  0  0  0
 18 20  1  0  0  0  0
M  END
$$$$
default_name
  -OEChem-01062215323D

 23 22  0     1  0  0  0  0  0999 V2000
   -2.6721   -3.7279    0.7212 H   0  0  0  0  0  0  0  0  0  0  0  0
   -2.6561   -2.6819    0.4162 C   0  0  0  0  0  0  0  0  0  0  0  0
   -3.2401   -2.0889    1.1172 H   0  0  0  0  0  0  0  0  0  0  0  0
   -3.0671   -2.5859   -0.5858 H   0  0  0  0  0  0  0  0  0  0  0  0
   -1.2261   -2.1939    0.4202 C   0  0  0  0  0  0  0  0  0  0  0  0
   -0.3181   -2.9519    0.7312 O   0  0  0  0  0  0  0  0  0  0  0  0
   -1.0281   -0.9259    0.0662 N   0  0  0  0  0  0  0  0  0  0  0  0
   -1.8301   -0.3519   -0.1548 H   0  0  0  0  0  0  0  0  0  0  0  0
    0.2709   -0.2409    0.0912 C   0  0  1  0  0  0  0  0  0  0  0  0
    0.6481   -0.1666   -0.9290 H   0  0  0  0  0  0  0  0  0  0  0  0
    0.1004    1.1823    0.6382 C   0  0  0  0  0  0  0  0  0  0  0  0
    1.0500    1.7136    0.5554 H   0  0  0  0  0  0  0  0  0  0  0  0
   -0.6517    1.7114    0.0502 H   0  0  0  0  0  0  0  0  0  0  0  0
   -0.2899    1.1571    1.9985 O   0  0  0  0  0  0  0  0  0  0  0  0
   -0.2167    2.0511    2.3497 H   0  0  0  0  0  0  0  0  0  0  0  0
    1.2890   -1.0433    0.9183 C   0  0  0  0  0  0  0  0  0  0  0  0
    2.3295   -1.4437    0.3950 O   0  0  0  0  0  0  0  0  0  0  0  0
    1.0031   -1.2694    2.2050 N   0  0  0  0  0  0  0  0  0  0  0  0
    0.0859   -0.9835    2.5212 H   0  0  0  0  0  0  0  0  0  0  0  0
    1.8677   -1.9938    3.1345 C   0  0  0  0  0  0  0  0  0  0  0  0
    2.8982   -1.6486    3.0265 H   0  0  0  0  0  0  0  0  0  0  0  0
    1.5393   -1.8279    4.1609 H   0  0  0  0  0  0  0  0  0  0  0  0
    1.8320   -3.0621    2.9112 H   0  0  0  0  0  0  0  0  0  0  0  0
  5  6  2  0  0  0  0
  5  7  1  0  0  0  0
  2  3  1  0  0  0  0
  2  4  1  0  0  0  0
  2  5  1  0  0  0  0
  1  2  1  0  0  0  0
 16 17  2  0  0  0  0
 16 18  1  0  0  0  0
 14 15  1  0  0  0  0
 11 12  1  0  0  0  0
 11 13  1  0  0  0  0
 11 14  1  0  0  0  0
  9 10  1  0  0  0  0
  9 11  1  0  0  0  0
  9 16  1  0  0  0  0
  7  8  1  0  0  0  0
  7  9  1  0  0  0  0
 20 21  1  0  0  0  0
 20 22  1  0  0  0  0
 20 23  1  0  0  0  0
 18 19  1  0  0  0  0
 18 20  1  0  0  0  0
M  END
$$$$
default_name
  -OEChem-01062215323D

 23 22  0     1  0  0  0  0  0999 V2000
   -2.6721   -3.7279    0.7212 H   0  0  0  0  0  0  0  0  0  0  0  0
   -2.6561   -2.6819    0.4162 C   0  0  0  0  0  0  0  0  0  0  0  0
   -3.2401   -2.0889    1.1172 H   0  0  0  0  0  0  0  0  0  0  0  0
   -3.0671   -2.5859   -0.5858 H   0  0  0  0  0  0  0  0  0  0  0  0
   -1.2261   -2.1939    0.4202 C   0  0  0  0  0  0  0  0  0  0  0  0
   -0.3181   -2.9519    0.7312 O   0  0  0  0  0  0  0  0  0  0  0  0
   -1.0281   -0.9259    0.0662 N   0  0  0  0  0  0  0  0  0  0  0  0
   -1.8301   -0.3519   -0.1548 H   0  0  0  0  0  0  0  0  0  0  0  0
    0.2709   -0.2409    0.0912 C   0  0  1  0  0  0  0  0  0  0  0  0
    0.6481   -0.1666   -0.9290 H   0  0  0  0  0  0  0  0  0  0  0  0
    0.1004    1.1823    0.6382 C   0  0  0  0  0  0  0  0  0  0  0  0
    1.0500    1.7136    0.5554 H   0  0  0  0  0  0  0  0  0  0  0  0
   -0.6517    1.7114    0.0502 H   0  0  0  0  0  0  0  0  0  0  0  0
   -0.2899    1.1571    1.9985 O   0  0  0  0  0  0  0  0  0  0  0  0
   -0.2167    2.0511    2.3497 H   0  0  0  0  0  0  0  0  0  0  0  0
    1.2890   -1.0433    0.9183 C   0  0  0  0  0  0  0  0  0  0  0  0
    2.4344   -1.2065    0.4961 O   0  0  0  0  0  0  0  0  0  0  0  0
    0.8845   -1.5330    2.0952 N   0  0  0  0  0  0  0  0  0  0  0  0
   -0.0971   -1.4283    2.3149 H   0  0  0  0  0  0  0  0  0  0  0  0
    1.7277   -2.2975    3.0122 C   0  0  0  0  0  0  0  0  0  0  0  0
    2.6996   -1.8100    3.1143 H   0  0  0  0  0  0  0  0  0  0  0  0
    1.2543   -2.3632    3.9923 H   0  0  0  0  0  0  0  0  0  0  0  0
    1.8814   -3.3034    2.6162 H   0  0  0  0  0  0  0  0  0  0  0  0
  5  6  2  0  0  0  0
  5  7  1  0  0  0  0
  2  3  1  0  0  0  0
  2  4  1  0  0  0  0
  2  5  1  0  0  0  0
  1  2  1  0  0  0  0
 16 17  2  0  0  0  0
 16 18  1  0  0  0  0
 14 15  1  0  0  0  0
 11 12  1  0  0  0  0
 11 13  1  0  0  0  0
 11 14  1  0  0  0  0
  9 10  1  0  0  0  0
  9 11  1  0  0  0  0
  9 16  1  0  0  0  0
  7  8  1  0  0  0  0
  7  9  1  0  0  0  0
 20 21  1  0  0  0  0
 20 22  1  0  0  0  0
 20 23  1  0  0  0  0
 18 19  1  0  0  0  0
 18 20  1  0  0  0  0
M  END
$$$$
default_name
  -OEChem-01062215323D

 23 22  0     1  0  0  0  0  0999 V2000
   -2.6721   -3.7279    0.7212 H   0  0  0  0  0  0  0  0  0  0  0  0
   -2.6561   -2.6819    0.4162 C   0  0  0  0  0  0  0  0  0  0  0  0
   -3.2401   -2.0889    1.1172 H   0  0  0  0  0  0  0  0  0  0  0  0
   -3.0671   -2.5859   -0.5858 H   0  0  0  0  0  0  0  0  0  0  0  0
   -1.2261   -2.1939    0.4202 C   0  0  0  0  0  0  0  0  0  0  0  0
   -0.3181   -2.9519    0.7312 O   0  0  0  0  0  0  0  0  0  0  0  0
   -1.0281   -0.9259    0.0662 N   0  0  0  0  0  0  0  0  0  0  0  0
   -1.8301   -0.3519   -0.1548 H   0  0  0  0  0  0  0  0  0  0  0  0
    0.2709   -0.2409    0.0912 C   0  0  1  0  0  0  0  0  0  0  0  0
    0.6481   -0.1666   -0.9290 H   0  0  0  0  0  0  0  0  0  0  0  0
    0.1004    1.1823    0.6382 C   0  0  0  0  0  0  0  0  0  0  0  0
    1.0500    1.7136    0.5554 H   0  0  0  0  0  0  0  0  0  0  0  0
   -0.6517    1.7114    0.0502 H   0  0  0  0  0  0  0  0  0  0  0  0
   -0.2899    1.1571    1.9985 O   0  0  0  0  0  0  0  0  0  0  0  0
   -0.2167    2.0511    2.3497 H   0  0  0  0  0  0  0  0  0  0  0  0
    1.2890   -1.0433    0.9183 C   0  0  0  0  0  0  0  0  0  0  0  0
    2.4890   -0.9801    0.6485 O   0  0  0  0  0  0  0  0  0  0  0  0
    0.8215   -1.7854    1.9279 N   0  0  0  0  0  0  0  0  0  0  0  0
   -0.1842   -1.8481    2.0148 H   0  0  0  0  0  0  0  0  0  0  0  0
    1.6513   -2.5893    2.8232 C   0  0  0  0  0  0  0  0  0  0  0  0
    2.5184   -2.0085    3.1448 H   0  0  0  0  0  0  0  0  0  0  0  0
    1.0764   -2.8911    3.6992 H   0  0  0  0  0  0  0  0  0  0  0  0
    2.0026   -3.4791    2.2966 H   0  0  0  0  0  0  0  0  0  0  0  0
  5  6  2  0  0  0  0
  5  7  1  0  0  0  0
  2  3  1  0  0  0  0
  2  4  1  0  0  0  0
  2  5  1  0  0  0  0
  1  2  1  0  0  0  0
 16 17  2  0  0  0  0
 16 18  1  0  0  0  0
 14 15  1  0  0  0  0
 11 12  1  0  0  0  0
 11 13  1  0  0  0  0
 11 14  1  0  0  0  0
  9 10  1  0  0  0  0
  9 11  1  0  0  0  0
  9 16  1  0  0  0  0
  7  8  1  0  0  0  0
  7  9  1  0  0  0  0
 20 21  1  0  0  0  0
 20 22  1  0  0  0  0
 20 23  1  0  0  0  0
 18 19  1  0  0  0  0
 18 20  1  0  0  0  0
M  END
$$$$
default_name
  -OEChem-01062215323D

 23 22  0     1  0  0  0  0  0999 V2000
   -2.6721   -3.7279    0.7212 H   0  0  0  0  0  0  0  0  0  0  0  0
   -2.6561   -2.6819    0.4162 C   0  0  0  0  0  0  0  0  0  0  0  0
   -3.2401   -2.0889    1.1172 H   0  0  0  0  0  0  0  0  0  0  0  0
   -3.0671   -2.5859   -0.5858 H   0  0  0  0  0  0  0  0  0  0  0  0
   -1.2261   -2.1939    0.4202 C   0  0  0  0  0  0  0  0  0  0  0  0
   -0.3181   -2.9519    0.7312 O   0  0  0  0  0  0  0  0  0  0  0  0
   -1.0281   -0.9259    0.0662 N   0  0  0  0  0  0  0  0  0  0  0  0
   -1.8301   -0.3519   -0.1548 H   0  0  0  0  0  0  0  0  0  0  0  0
    0.2709   -0.2409    0.0912 C   0  0  1  0  0  0  0  0  0  0  0  0
    0.6481   -0.1666   -0.9290 H   0  0  0  0  0  0  0  0  0  0  0  0
    0.1004    1.1823    0.6382 C   0  0  0  0  0  0  0  0  0  0  0  0
    1.0500    1.7136    0.5554 H   0  0  0  0  0  0  0  0  0  0  0  0
   -0.6517    1.7114    0.0502 H   0  0  0  0  0  0  0  0  0  0  0  0
   -0.2899    1.1571    1.9985 O   0  0  0  0  0  0  0  0  0  0  0  0
   -0.2167    2.0511    2.3497 H   0  0  0  0  0  0  0  0  0  0  0  0
    1.2890   -1.0433    0.9183 C   0  0  0  0  0  0  0  0  0  0  0  0
    2.4897   -0.7799    0.8419 O   0  0  0  0  0  0  0  0  0  0  0  0
    0.8184   -2.0092    1.7146 N   0  0  0  0  0  0  0  0  0  0  0  0
   -0.1692   -2.2143    1.6411 H   0  0  0  0  0  0  0  0  0  0  0  0
    1.6436   -2.8495    2.5802 C   0  0  0  0  0  0  0  0  0  0  0  0
    2.3669   -2.2308    3.1156 H   0  0  0  0  0  0  0  0  0  0  0  0
    1.0176   -3.3755    3.3016 H   0  0  0  0  0  0  0  0  0  0  0  0
    2.1872   -3.5772    1.9742 H   0  0  0  0  0  0  0  0  0  0  0  0
  5  6  2  0  0  0  0
  5  7  1  0  0  0  0
  2  3  1  0  0  0  0
  2  4  1  0  0  0  0
  2  5  1  0  0  0  0
  1  2  1  0  0  0  0
 16 17  2  0  0  0  0
 16 18  1  0  0  0  0
 14 15  1  0  0  0  0
 11 12  1  0  0  0  0
 11 13  1  0  0  0  0
 11 14  1  0  0  0  0
  9 10  1  0  0  0  0
  9 11  1  0  0  0  0
  9 16  1  0  0  0  0
  7  8  1  0  0  0  0
  7  9  1  0  0  0  0
 20 21  1  0  0  0  0
 20 22  1  0  0  0  0
 20 23  1  0  0  0  0
 18 19  1  0  0  0  0
 18 20  1  0  0  0  0
M  END
$$$$
default_name
  -OEChem-01062215323D

 23 22  0     1  0  0  0  0  0999 V2000
   -2.6721   -3.7279    0.7212 H   0  0  0  0  0  0  0  0  0  0  0  0
   -2.6561   -2.6819    0.4162 C   0  0  0  0  0  0  0  0  0  0  0  0
   -3.2401   -2.0889    1.1172 H   0  0  0  0  0  0  0  0  0  0  0  0
   -3.0671   -2.5859   -0.5858 H   0  0  0  0  0  0  0  0  0  0  0  0
   -1.2261   -2.1939    0.4202 C   0  0  0  0  0  0  0  0  0  0  0  0
   -0.3181   -2.9519    0.7312 O   0  0  0  0  0  0  0  0  0  0  0  0
   -1.0281   -0.9259    0.0662 N   0  0  0  0  0  0  0  0  0  0  0  0
   -1.8301   -0.3519   -0.1548 H   0  0  0  0  0  0  0  0  0  0  0  0
    0.2709   -0.2409    0.0912 C   0  0  1  0  0  0  0  0  0  0  0  0
    0.6481   -0.1666   -0.9290 H   0  0  0  0  0  0  0  0  0  0  0  0
    0.1004    1.1823    0.6382 C   0  0  0  0  0  0  0  0  0  0  0  0
    1.0500    1.7136    0.5554 H   0  0  0  0  0  0  0  0  0  0  0  0
   -0.6517    1.7114    0.0502 H   0  0  0  0  0  0  0  0  0  0  0  0
   -0.2899    1.1571    1.9985 O   0  0  0  0  0  0  0  0  0  0  0  0
   -0.2167    2.0511    2.3497 H   0  0  0  0  0  0  0  0  0  0  0  0
    1.2890   -1.0433    0.9183 C   0  0  0  0  0  0  0  0  0  0  0  0
    2.4363   -0.6196    1.0631 O   0  0  0  0  0  0  0  0  0  0  0  0
    0.8753   -2.1893    1.4698 N   0  0  0  0  0  0  0  0  0  0  0  0
   -0.0534   -2.5019    1.2195 H   0  0  0  0  0  0  0  0  0  0  0  0
    1.7052   -3.0602    2.2999 C   0  0  0  0  0  0  0  0  0  0  0  0
    2.2555   -2.4615    3.0290 H   0  0  0  0  0  0  0  0  0  0  0  0
    1.0819   -3.7835    2.8266 H   0  0  0  0  0  0  0  0  0  0  0  0
    2.4228   -3.5909    1.6709 H   0  0  0  0  0  0  0  0  0  0  0  0
  5  6  2  0  0  0  0
  5  7  1  0  0  0  0
  2  3  1  0  0  0  0
  2  4  1  0  0  0  0
  2  5  1  0  0  0  0
  1  2  1  0  0  0  0
 16 17  2  0  0  0  0
 16 18  1  0  0  0  0
 14 15  1  0  0  0  0
 11 12  1  0  0  0  0
 11 13  1  0  0  0  0
 11 14  1  0  0  0  0
  9 10  1  0  0  0  0
  9 11  1  0  0  0  0
  9 16  1  0  0  0  0
  7  8  1  0  0  0  0
  7  9  1  0  0  0  0
 20 21  1  0  0  0  0
 20 22  1  0  0  0  0
 20 23  1  0  0  0  0
 18 19  1  0  0  0  0
 18 20  1  0  0  0  0
M  END
$$$$
default_name
  -OEChem-01062215323D

 23 22  0     1  0  0  0  0  0999 V2000
   -2.6721   -3.7279    0.7212 H   0  0  0  0  0  0  0  0  0  0  0  0
   -2.6561   -2.6819    0.4162 C   0  0  0  0  0  0  0  0  0  0  0  0
   -3.2401   -2.0889    1.1172 H   0  0  0  0  0  0  0  0  0  0  0  0
   -3.0671   -2.5859   -0.5858 H   0  0  0  0  0  0  0  0  0  0  0  0
   -1.2261   -2.1939    0.4202 C   0  0  0  0  0  0  0  0  0  0  0  0
   -0.3181   -2.9519    0.7312 O   0  0  0  0  0  0  0  0  0  0  0  0
   -1.0281   -0.9259    0.0662 N   0  0  0  0  0  0  0  0  0  0  0  0
   -1.8301   -0.3519   -0.1548 H   0  0  0  0  0  0  0  0  0  0  0  0
    0.2709   -0.2409    0.0912 C   0  0  1  0  0  0  0  0  0  0  0  0
    0.6481   -0.1666   -0.9290 H   0  0  0  0  0  0  0  0  0  0  0  0
    0.1004    1.1823    0.6382 C   0  0  0  0  0  0  0  0  0  0  0  0
    1.0500    1.7136    0.5554 H   0  0  0  0  0  0  0  0  0  0  0  0
   -0.6517    1.7114    0.0502 H   0  0  0  0  0  0  0  0  0  0  0  0
   -0.2899    1.1571    1.9985 O   0  0  0  0  0  0  0  0  0  0  0  0
   -0.2167    2.0511    2.3497 H   0  0  0  0  0  0  0  0  0  0  0  0
    1.2890   -1.0433    0.9183 C   0  0  0  0  0  0  0  0  0  0  0  0
    2.3326   -0.5101    1.2970 O   0  0  0  0  0  0  0  0  0  0  0  0
    0.9885   -2.3134    1.2101 N   0  0  0  0  0  0  0  0  0  0  0  0
    0.1555   -2.6913    0.7786 H   0  0  0  0  0  0  0  0  0  0  0  0
    1.8319   -3.2071    2.0014 C   0  0  0  0  0  0  0  0  0  0  0  0
    2.1916   -2.6851    2.8906 H   0  0  0  0  0  0  0  0  0  0  0  0
    1.2650   -4.0872    2.3065 H   0  0  0  0  0  0  0  0  0  0  0  0
    2.6933   -3.5194    1.4073 H   0  0  0  0  0  0  0  0  0  0  0  0
  5  6  2  0  0  0  0
  5  7  1  0  0  0  0
  2  3  1  0  0  0  0
  2  4  1  0  0  0  0
  2  5  1  0  0  0  0
  1  2  1  0  0  0  0
 16 17  2  0  0  0  0
 16 18  1  0  0  0  0
 14 15  1  0  0  0  0
 11 12  1  0  0  0  0
 11 13  1  0  0  0  0
 11 14  1  0  0  0  0
  9 10  1  0  0  0  0
  9 11  1  0  0  0  0
  9 16  1  0  0  0  0
  7  8  1  0  0  0  0
  7  9  1  0  0  0  0
 20 21  1  0  0  0  0
 20 22  1  0  0  0  0
 20 23  1  0  0  0  0
 18 19  1  0  0  0  0
 18 20  1  0  0  0  0
M  END
$$$$
default_name
  -OEChem-01062215323D

 23 22  0     1  0  0  0  0  0999 V2000
   -2.6721   -3.7279    0.7212 H   0  0  0  0  0  0  0  0  0  0  0  0
   -2.6561   -2.6819    0.4162 C   0  0  0  0  0  0  0  0  0  0  0  0
   -3.2401   -2.0889    1.1172 H   0  0  0  0  0  0  0  0  0  0  0  0
   -3.0671   -2.5859   -0.5858 H   0  0  0  0  0  0  0  0  0  0  0  0
   -1.2261   -2.1939    0.4202 C   0  0  0  0  0  0  0  0  0  0  0  0
   -0.3181   -2.9519    0.7312 O   0  0  0  0  0  0  0  0  0  0  0  0
   -1.0281   -0.9259    0.0662 N   0  0  0  0  0  0  0  0  0  0  0  0
   -1.8301   -0.3519   -0.1548 H   0  0  0  0  0  0  0  0  0  0  0  0
    0.2709   -0.2409    0.0912 C   0  0  1  0  0  0  0  0  0  0  0  0
    0.6481   -0.1666   -0.9290 H   0  0  0  0  0  0  0  0  0  0  0  0
    0.1004    1.1823    0.6382 C   0  0  0  0  0  0  0  0  0  0  0  0
    1.0500    1.7136    0.5554 H   0  0  0  0  0  0  0  0  0  0  0  0
   -0.6517    1.7114    0.0502 H   0  0  0  0  0  0  0  0  0  0  0  0
   -0.2899    1.1571    1.9985 O   0  0  0  0  0  0  0  0  0  0  0  0
   -0.2167    2.0511    2.3497 H   0  0  0  0  0  0  0  0  0  0  0  0
    1.2890   -1.0433    0.9183 C   0  0  0  0  0  0  0  0  0  0  0  0
    2.1855   -0.4589    1.5277 O   0  0  0  0  0  0  0  0  0  0  0  0
    1.1501   -2.3730    0.9533 N   0  0  0  0  0  0  0  0  0  0  0  0
    0.4432   -2.7696    0.3485 H   0  0  0  0  0  0  0  0  0  0  0  0
    2.0151   -3.2803    1.7050 C   0  0  0  0  0  0  0  0  0  0  0  0
    2.1798   -2.8862    2.7101 H   0  0  0  0  0  0  0  0  0  0  0  0
    1.5544   -4.2659    1.7769 H   0  0  0  0  0  0  0  0  0  0  0  0
    2.9801   -3.3675    1.2016 H   0  0  0  0  0  0  0  0  0  0  0  0
  5  6  2  0  0  0  0
  5  7  1  0  0  0  0
  2  3  1  0  0  0  0
  2  4  1  0  0  0  0
  2  5  1  0  0  0  0
  1  2  1  0  0  0  0
 16 17  2  0  0  0  0
 16 18  1  0  0  0  0
 14 15  1  0  0  0  0
 11 12  1  0  0  0  0
 11 13  1  0  0  0  0
 11 14  1  0  0  0  0
  9 10  1  0  0  0  0
  9 11  1  0  0  0  0
  9 16  1  0  0  0  0
  7  8  1  0  0  0  0
  7  9  1  0  0  0  0
 20 21  1  0  0  0  0
 20 22  1  0  0  0  0
 20 23  1  0  0  0  0
 18 19  1  0  0  0  0
 18 20  1  0  0  0  0
M  END
$$$$
default_name
  -OEChem-01062215323D

 23 22  0     1  0  0  0  0  0999 V2000
   -2.6721   -3.7279    0.7212 H   0  0  0  0  0  0  0  0  0  0  0  0
   -2.6561   -2.6819    0.4162 C   0  0  0  0  0  0  0  0  0  0  0  0
   -3.2401   -2.0889    1.1172 H   0  0  0  0  0  0  0  0  0  0  0  0
   -3.0671   -2.5859   -0.5858 H   0  0  0  0  0  0  0  0  0  0  0  0
   -1.2261   -2.1939    0.4202 C   0  0  0  0  0  0  0  0  0  0  0  0
   -0.3181   -2.9519    0.7312 O   0  0  0  0  0  0  0  0  0  0  0  0
   -1.0281   -0.9259    0.0662 N   0  0  0  0  0  0  0  0  0  0  0  0
   -1.8301   -0.3519   -0.1548 H   0  0  0  0  0  0  0  0  0  0  0  0
    0.2709   -0.2409    0.0912 C   0  0  1  0  0  0  0  0  0  0  0  0
    0.6481   -0.1666   -0.9290 H   0  0  0  0  0  0  0  0  0  0  0  0
    0.1004    1.1823    0.6382 C   0  0  0  0  0  0  0  0  0  0  0  0
    1.0500    1.7136    0.5554 H   0  0  0  0  0  0  0  0  0  0  0  0
   -0.6517    1.7114    0.0502 H   0  0  0  0  0  0  0  0  0  0  0  0
   -0.2899    1.1571    1.9985 O   0  0  0  0  0  0  0  0  0  0  0  0
   -0.2167    2.0511    2.3497 H   0  0  0  0  0  0  0  0  0  0  0  0
    1.2890   -1.0433    0.9183 C   0  0  0  0  0  0  0  0  0  0  0  0
    2.0052   -0.4694    1.7395 O   0  0  0  0  0  0  0  0  0  0  0  0
    1.3493   -2.3641    0.7169 N   0  0  0  0  0  0  0  0  0  0  0  0
    0.7900   -2.7315   -0.0415 H   0  0  0  0  0  0  0  0  0  0  0  0
    2.2422   -3.2746    1.4309 C   0  0  0  0  0  0  0  0  0  0  0  0
    2.2207   -3.0512    2.4997 H   0  0  0  0  0  0  0  0  0  0  0  0
    1.9303   -4.3075    1.2737 H   0  0  0  0  0  0  0  0  0  0  0  0
    3.2639   -3.1456    1.0676 H   0  0  0  0  0  0  0  0  0  0  0  0
  5  6  2  0  0  0  0
  5  7  1  0  0  0  0
  2  3  1  0  0  0  0
  2  4  1  0  0  0  0
  2  5  1  0  0  0  0
  1  2  1  0  0  0  0
 16 17  2  0  0  0  0
 16 18  1  0  0  0  0
 14 15  1  0  0  0  0
 11 12  1  0  0  0  0
 11 13  1  0  0  0  0
 11 14  1  0  0  0  0
  9 10  1  0  0  0  0
  9 11  1  0  0  0  0
  9 16  1  0  0  0  0
  7  8  1  0  0  0  0
  7  9  1  0  0  0  0
 20 21  1  0  0  0  0
 20 22  1  0  0  0  0
 20 23  1  0  0  0  0
 18 19  1  0  0  0  0
 18 20  1  0  0  0  0
M  END
$$$$
default_name
  -OEChem-01062215323D

 23 22  0     1  0  0  0  0  0999 V2000
   -2.6721   -3.7279    0.7212 H   0  0  0  0  0  0  0  0  0  0  0  0
   -2.6561   -2.6819    0.4162 C   0  0  0  0  0  0  0  0  0  0  0  0
   -3.2401   -2.0889    1.1172 H   0  0  0  0  0  0  0  0  0  0  0  0
   -3.0671   -2.5859   -0.5858 H   0  0  0  0  0  0  0  0  0  0  0  0
   -1.2261   -2.1939    0.4202 C   0  0  0  0  0  0  0  0  0  0  0  0
   -0.3181   -2.9519    0.7312 O   0  0  0  0  0  0  0  0  0  0  0  0
   -1.0281   -0.9259    0.0662 N   0  0  0  0  0  0  0  0  0  0  0  0
   -1.8301   -0.3519   -0.1548 H   0  0  0  0  0  0  0  0  0  0  0  0
    0.2709   -0.2409    0.0912 C   0  0  1  0  0  0  0  0  0  0  0  0
    0.6481   -0.1666   -0.9290 H   0  0  0  0  0  0  0  0  0  0  0  0
    0.1004    1.1823    0.6382 C   0  0  0  0  0  0  0  0  0  0  0  0
    1.0500    1.7136    0.5554 H   0  0  0  0  0  0  0  0  0  0  0  0
   -0.6517    1.7114    0.0502 H   0  0  0  0  0  0  0  0  0  0  0  0
   -0.2899    1.1571    1.9985 O   0  0  0  0  0  0  0  0  0  0  0  0
   -0.2167    2.0511    2.3497 H   0  0  0  0  0  0  0  0  0  0  0  0
    1.2890   -1.0433    0.9183 C   0  0  0  0  0  0  0  0  0  0  0  0
    1.8039   -0.5409    1.9179 O   0  0  0  0  0  0  0  0  0  0  0  0
    1.5723   -2.2872    0.5169 N   0  0  0  0  0  0  0  0  0  0  0  0
    1.1725   -2.5796   -0.3649 H   0  0  0  0  0  0  0  0  0  0  0  0
    2.4979   -3.1905    1.1978 C   0  0  0  0  0  0  0  0  0  0  0  0
    2.3116   -3.1688    2.2736 H   0  0  0  0  0  0  0  0  0  0  0  0
    2.3672   -4.2092    0.8314 H   0  0  0  0  0  0  0  0  0  0  0  0
    3.5251   -2.8689    1.0145 H   0  0  0  0  0  0  0  0  0  0  0  0
  5  6  2  0  0  0  0
  5  7  1  0  0  0  0
  2  3  1  0  0  0  0
  2  4  1  0  0  0  0
  2  5  1  0  0  0  0
  1  2  1  0  0  0  0
 16 17  2  0  0  0  0
 16 18  1  0  0  0  0
 14 15  1  0  0  0  0
 11 12  1  0  0  0  0
 11 13  1  0  0  0  0
 11 14  1  0  0  0  0
  9 10  1  0  0  0  0
  9 11  1  0  0  0  0
  9 16  1  0  0  0  0
  7  8  1  0  0  0  0
  7  9  1  0  0  0  0
 20 21  1  0  0  0  0
 20 22  1  0  0  0  0
 20 23  1  0  0  0  0
 18 19  1  0  0  0  0
 18 20  1  0  0  0  0
M  END
$$$$
default_name
  -OEChem-01062215323D

 23 22  0     1  0  0  0  0  0999 V2000
   -2.6721   -3.7279    0.7212 H   0  0  0  0  0  0  0  0  0  0  0  0
   -2.6561   -2.6819    0.4162 C   0  0  0  0  0  0  0  0  0  0  0  0
   -3.2401   -2.0889    1.1172 H   0  0  0  0  0  0  0  0  0  0  0  0
   -3.0671   -2.5859   -0.5858 H   0  0  0  0  0  0  0  0  0  0  0  0
   -1.2261   -2.1939    0.4202 C   0  0  0  0  0  0  0  0  0  0  0  0
   -0.3181   -2.9519    0.7312 O   0  0  0  0  0  0  0  0  0  0  0  0
   -1.0281   -0.9259    0.0662 N   0  0  0  0  0  0  0  0  0  0  0  0
   -1.8301   -0.3519   -0.1548 H   0  0  0  0  0  0  0  0  0  0  0  0
    0.2709   -0.2409    0.0912 C   0  0  1  0  0  0  0  0  0  0  0  0
    0.6481   -0.1666   -0.9290 H   0  0  0  0  0  0  0  0  0  0  0  0
    0.1004    1.1823    0.6382 C   0  0  0  0  0  0  0  0  0  0  0  0
    1.0500    1.7136    0.5554 H   0  0  0  0  0  0  0  0  0  0  0  0
   -0.6517    1.7114    0.0502 H   0  0  0  0  0  0  0  0  0  0  0  0
   -0.2899    1.1571    1.9985 O   0  0  0  0  0  0  0  0  0  0  0  0
   -0.2167    2.0511    2.3497 H   0  0  0  0  0  0  0  0  0  0  0  0
    1.2890   -1.0433    0.9183 C   0  0  0  0  0  0  0  0  0  0  0  0
    1.5953   -0.6686    2.0508 O   0  0  0  0  0  0  0  0  0  0  0  0
    1.8040   -2.1476    0.3671 N   0  0  0  0  0  0  0  0  0  0  0  0
    1.5644   -2.3242   -0.5995 H   0  0  0  0  0  0  0  0  0  0  0  0
    2.7646   -3.0338    1.0215 C   0  0  0  0  0  0  0  0  0  0  0  0
    2.4464   -3.2310    2.0474 H   0  0  0  0  0  0  0  0  0  0  0  0
    2.8353   -3.9776    0.4800 H   0  0  0  0  0  0  0  0  0  0  0  0
    3.7462   -2.5560    1.0459 H   0  0  0  0  0  0  0  0  0  0  0  0
  5  6  2  0  0  0  0
  5  7  1  0  0  0  0
  2  3  1  0  0  0  0
  2  4  1  0  0  0  0
  2  5  1  0  0  0  0
  1  2  1  0  0  0  0
 16 17  2  0  0  0  0
 16 18  1  0  0  0  0
 14 15  1  0  0  0  0
 11 12  1  0  0  0  0
 11 13  1  0  0  0  0
 11 14  1  0  0  0  0
  9 10  1  0  0  0  0
  9 11  1  0  0  0  0
  9 16  1  0  0  0  0
  7  8  1  0  0  0  0
  7  9  1  0  0  0  0
 20 21  1  0  0  0  0
 20 22  1  0  0  0  0
 20 23  1  0  0  0  0
 18 19  1  0  0  0  0
 18 20  1  0  0  0  0
M  END
$$$$
default_name
  -OEChem-01062215323D

 23 22  0     1  0  0  0  0  0999 V2000
   -2.6721   -3.7279    0.7212 H   0  0  0  0  0  0  0  0  0  0  0  0
   -2.6561   -2.6819    0.4162 C   0  0  0  0  0  0  0  0  0  0  0  0
   -3.2401   -2.0889    1.1172 H   0  0  0  0  0  0  0  0  0  0  0  0
   -3.0671   -2.5859   -0.5858 H   0  0  0  0  0  0  0  0  0  0  0  0
   -1.2261   -2.1939    0.4202 C   0  0  0  0  0  0  0  0  0  0  0  0
   -0.3181   -2.9519    0.7312 O   0  0  0  0  0  0  0  0  0  0  0  0
   -1.0281   -0.9259    0.0662 N   0  0  0  0  0  0  0  0  0  0  0  0
   -1.8301   -0.3519   -0.1548 H   0  0  0  0  0  0  0  0  0  0  0  0
    0.2709   -0.2409    0.0912 C   0  0  1  0  0  0  0  0  0  0  0  0
    0.6481   -0.1666   -0.9290 H   0  0  0  0  0  0  0  0  0  0  0  0
    0.1004    1.1823    0.6382 C   0  0  0  0  0  0  0  0  0  0  0  0
    1.0500    1.7136    0.5554 H   0  0  0  0  0  0  0  0  0  0  0  0
   -0.6517    1.7114    0.0502 H   0  0  0  0  0  0  0  0  0  0  0  0
   -0.2899    1.1571    1.9985 O   0  0  0  0  0  0  0  0  0  0  0  0
   -0.2167    2.0511    2.3497 H   0  0  0  0  0  0  0  0  0  0  0  0
    1.2890   -1.0433    0.9183 C   0  0  0  0  0  0  0  0  0  0  0  0
    1.3937   -0.8438    2.1291 O   0  0  0  0  0  0  0  0  0  0  0  0
    2.0287   -1.9549    0.2775 N   0  0  0  0  0  0  0  0  0  0  0  0
    1.9391   -1.9828   -0.7295 H   0  0  0  0  0  0  0  0  0  0  0  0
    3.0242   -2.8151    0.9141 C   0  0  0  0  0  0  0  0  0  0  0  0
    2.6157   -3.2335    1.8365 H   0  0  0  0  0  0  0  0  0  0  0  0
    3.3026   -3.6284    0.2434 H   0  0  0  0  0  0  0  0  0  0  0  0
    3.9118   -2.2285    1.1598 H   0  0  0  0  0  0  0  0  0  0  0  0
  5  6  2  0  0  0  0
  5  7  1  0  0  0  0
  2  3  1  0  0  0  0
  2  4  1  0  0  0  0
  2  5  1  0  0  0  0
  1  2  1  0  0  0  0
 16 17  2  0  0  0  0
 16 18  1  0  0  0  0
 14 15  1  0  0  0  0
 11 12  1  0  0  0  0
 11 13  1  0  0  0  0
 11 14  1  0  0  0  0
  9 10  1  0  0  0  0
  9 11  1  0  0  0  0
  9 16  1  0  0  0  0
  7  8  1  0  0  0  0
  7  9  1  0  0  0  0
 20 21  1  0  0  0  0
 20 22  1  0  0  0  0
 20 23  1  0  0  0  0
 18 19  1  0  0  0  0
 18 20  1  0  0  0  0
M  END
$$$$
default_name
  -OEChem-01062215323D

 23 22  0     1  0  0  0  0  0999 V2000
   -2.6721   -3.7279    0.7212 H   0  0  0  0  0  0  0  0  0  0  0  0
   -2.6561   -2.6819    0.4162 C   0  0  0  0  0  0  0  0  0  0  0  0
   -3.2401   -2.0889    1.1172 H   0  0  0  0  0  0  0  0  0  0  0  0
   -3.0671   -2.5859   -0.5858 H   0  0  0  0  0  0  0  0  0  0  0  0
   -1.2261   -2.1939    0.4202 C   0  0  0  0  0  0  0  0  0  0  0  0
   -0.3181   -2.9519    0.7312 O   0  0  0  0  0  0  0  0  0  0  0  0
   -1.0281   -0.9259    0.0662 N   0  0  0  0  0  0  0  0  0  0  0  0
   -1.8301   -0.3519   -0.1548 H   0  0  0  0  0  0  0  0  0  0  0  0
    0.2709   -0.2409    0.0912 C   0  0  1  0  0  0  0  0  0  0  0  0
    0.6481   -0.1666   -0.9290 H   0  0  0  0  0  0  0  0  0  0  0  0
    0.1004    1.1823    0.6382 C   0  0  0  0  0  0  0  0  0  0  0  0
    1.0500    1.7136    0.5554 H   0  0  0  0  0  0  0  0  0  0  0  0
   -0.6517    1.7114    0.0502 H   0  0  0  0  0  0  0  0  0  0  0  0
   -0.2899    1.1571    1.9985 O   0  0  0  0  0  0  0  0  0  0  0  0
   -0.2167    2.0511    2.3497 H   0  0  0  0  0  0  0  0  0  0  0  0
    1.2890   -1.0433    0.9183 C   0  0  0  0  0  0  0  0  0  0  0  0
    1.2127   -1.0544    2.1474 O   0  0  0  0  0  0  0  0  0  0  0  0
    2.2309   -1.7221    0.2544 N   0  0  0  0  0  0  0  0  0  0  0  0
    2.2710   -1.5785   -0.7459 H   0  0  0  0  0  0  0  0  0  0  0  0
    3.2590   -2.5493    0.8830 C   0  0  0  0  0  0  0  0  0  0  0  0
    2.8081   -3.1763    1.6552 H   0  0  0  0  0  0  0  0  0  0  0  0
    3.7373   -3.1856    0.1379 H   0  0  0  0  0  0  0  0  0  0  0  0
    4.0109   -1.9085    1.3482 H   0  0  0  0  0  0  0  0  0  0  0  0
  5  6  2  0  0  0  0
  5  7  1  0  0  0  0
  2  3  1  0  0  0  0
  2  4  1  0  0  0  0
  2  5  1  0  0  0  0
  1  2  1  0  0  0  0
 16 17  2  0  0  0  0
 16 18  1  0  0  0  0
 14 15  1  0  0  0  0
 11 12  1  0  0  0  0
 11 13  1  0  0  0  0
 11 14  1  0  0  0  0
  9 10  1  0  0  0  0
  9 11  1  0  0  0  0
  9 16  1  0  0  0  0
  7  8  1  0  0  0  0
  7  9  1  0  0  0  0
 20 21  1  0  0  0  0
 20 22  1  0  0  0  0
 20 23  1  0  0  0  0
 18 19  1  0  0  0  0
 18 20  1  0  0  0  0
M  END
$$$$
default_name
  -OEChem-01062215323D

 23 22  0     1  0  0  0  0  0999 V2000
   -2.6721   -3.7279    0.7212 H   0  0  0  0  0  0  0  0  0  0  0  0
   -2.6561   -2.6819    0.4162 C   0  0  0  0  0  0  0  0  0  0  0  0
   -3.2401   -2.0889    1.1172 H   0  0  0  0  0  0  0  0  0  0  0  0
   -3.0671   -2.5859   -0.5858 H   0  0  0  0  0  0  0  0  0  0  0  0
   -1.2261   -2.1939    0.4202 C   0  0  0  0  0  0  0  0  0  0  0  0
   -0.3181   -2.9519    0.7312 O   0  0  0  0  0  0  0  0  0  0  0  0
   -1.0281   -0.9259    0.0662 N   0  0  0  0  0  0  0  0  0  0  0  0
   -1.8301   -0.3519   -0.1548 H   0  0  0  0  0  0  0  0  0  0  0  0
    0.2709   -0.2409    0.0912 C   0  0  1  0  0  0  0  0  0  0  0  0
    0.6481   -0.1666   -0.9290 H   0  0  0  0  0  0  0  0  0  0  0  0
    0.1004    1.1823    0.6382 C   0  0  0  0  0  0  0  0  0  0  0  0
    1.0500    1.7136    0.5554 H   0  0  0  0  0  0  0  0  0  0  0  0
   -0.6517    1.7114    0.0502 H   0  0  0  0  0  0  0  0  0  0  0  0
   -0.2899    1.1571    1.9985 O   0  0  0  0  0  0  0  0  0  0  0  0
   -0.2167    2.0511    2.3497 H   0  0  0  0  0  0  0  0  0  0  0  0
    1.2890   -1.0433    0.9183 C   0  0  0  0  0  0  0  0  0  0  0  0
    1.0647   -1.2863    2.1046 O   0  0  0  0  0  0  0  0  0  0  0  0
    2.3970   -1.4651    0.2993 N   0  0  0  0  0  0  0  0  0  0  0  0
    2.5376   -1.1390   -0.6476 H   0  0  0  0  0  0  0  0  0  0  0  0
    3.4530   -2.2545    0.9301 C   0  0  0  0  0  0  0  0  0  0  0  0
    3.0105   -3.0631    1.5158 H   0  0  0  0  0  0  0  0  0  0  0  0
    4.1099   -2.6793    0.1705 H   0  0  0  0  0  0  0  0  0  0  0  0
    4.0366   -1.6180    1.5985 H   0  0  0  0  0  0  0  0  0  0  0  0
  5  6  2  0  0  0  0
  5  7  1  0  0  0  0
  2  3  1  0  0  0  0
  2  4  1  0  0  0  0
  2  5  1  0  0  0  0
  1  2  1  0  0  0  0
 16 17  2  0  0  0  0
 16 18  1  0  0  0  0
 14 15  1  0  0  0  0
 11 12  1  0  0  0  0
 11 13  1  0  0  0  0
 11 14  1  0  0  0  0
  9 10  1  0  0  0  0
  9 11  1  0  0  0  0
  9 16  1  0  0  0  0
  7  8  1  0  0  0  0
  7  9  1  0  0  0  0
 20 21  1  0  0  0  0
 20 22  1  0  0  0  0
 20 23  1  0  0  0  0
 18 19  1  0  0  0  0
 18 20  1  0  0  0  0
M  END
$$$$
default_name
  -OEChem-01062215323D

 23 22  0     1  0  0  0  0  0999 V2000
   -2.6721   -3.7279    0.7212 H   0  0  0  0  0  0  0  0  0  0  0  0
   -2.6561   -2.6819    0.4162 C   0  0  0  0  0  0  0  0  0  0  0  0
   -3.2401   -2.0889    1.1172 H   0  0  0  0  0  0  0  0  0  0  0  0
   -3.0671   -2.5859   -0.5858 H   0  0  0  0  0  0  0  0  0  0  0  0
   -1.2261   -2.1939    0.4202 C   0  0  0  0  0  0  0  0  0  0  0  0
   -0.3181   -2.9519    0.7312 O   0  0  0  0  0  0  0  0  0  0  0  0
   -1.0281   -0.9259    0.0662 N   0  0  0  0  0  0  0  0  0  0  0  0
   -1.8301   -0.3519   -0.1548 H   0  0  0  0  0  0  0  0  0  0  0  0
    0.2709   -0.2409    0.0912 C   0  0  1  0  0  0  0  0  0  0  0  0
    0.6481   -0.1666   -0.9290 H   0  0  0  0  0  0  0  0  0  0  0  0
    0.1004    1.1823    0.6382 C   0  0  0  0  0  0  0  0  0  0  0  0
    1.0500    1.7136    0.5554 H   0  0  0  0  0  0  0  0  0  0  0  0
   -0.6517    1.7114    0.0502 H   0  0  0  0  0  0  0  0  0  0  0  0
   -0.2899    1.1571    1.9985 O   0  0  0  0  0  0  0  0  0  0  0  0
   -0.2167    2.0511    2.3497 H   0  0  0  0  0  0  0  0  0  0  0  0
    1.2890   -1.0433    0.9183 C   0  0  0  0  0  0  0  0  0  0  0  0
    0.9599   -1.5235    2.0036 O   0  0  0  0  0  0  0  0  0  0  0  0
    2.5155   -1.2015    0.4092 N   0  0  0  0  0  0  0  0  0  0  0  0
    2.7207   -0.6942   -0.4414 H   0  0  0  0  0  0  0  0  0  0  0  0
    3.5930   -1.9508    1.0524 C   0  0  0  0  0  0  0  0  0  0  0  0
    3.2091   -2.9018    1.4280 H   0  0  0  0  0  0  0  0  0  0  0  0
    4.3948   -2.1440    0.3392 H   0  0  0  0  0  0  0  0  0  0  0  0
    3.9872   -1.3767    1.8935 H   0  0  0  0  0  0  0  0  0  0  0  0
  5  6  2  0  0  0  0
  5  7  1  0  0  0  0
  2  3  1  0  0  0  0
  2  4  1  0  0  0  0
  2  5  1  0  0  0  0
  1  2  1  0  0  0  0
 16 17  2  0  0  0  0
 16 18  1  0  0  0  0
 14 15  1  0  0  0  0
 11 12  1  0  0  0  0
 11 13  1  0  0  0  0
 11 14  1  0  0  0  0
  9 10  1  0  0  0  0
  9 11  1  0  0  0  0
  9 16  1  0  0  0  0
  7  8  1  0  0  0  0
  7  9  1  0  0  0  0
 20 21  1  0  0  0  0
 20 22  1  0  0  0  0
 20 23  1  0  0  0  0
 18 19  1  0  0  0  0
 18 20  1  0  0  0  0
M  END
$$$$
default_name
  -OEChem-01062215323D

 23 22  0     1  0  0  0  0  0999 V2000
   -2.6721   -3.7279    0.7212 H   0  0  0  0  0  0  0  0  0  0  0  0
   -2.6561   -2.6819    0.4162 C   0  0  0  0  0  0  0  0  0  0  0  0
   -3.2401   -2.0889    1.1172 H   0  0  0  0  0  0  0  0  0  0  0  0
   -3.0671   -2.5859   -0.5858 H   0  0  0  0  0  0  0  0  0  0  0  0
   -1.2261   -2.1939    0.4202 C   0  0  0  0  0  0  0  0  0  0  0  0
   -0.3181   -2.9519    0.7312 O   0  0  0  0  0  0  0  0  0  0  0  0
   -1.0281   -0.9259    0.0662 N   0  0  0  0  0  0  0  0  0  0  0  0
   -1.8301   -0.3519   -0.1548 H   0  0  0  0  0  0  0  0  0  0  0  0
    0.2709   -0.2409    0.0912 C   0  0  1  0  0  0  0  0  0  0  0  0
    0.6481   -0.1666   -0.9290 H   0  0  0  0  0  0  0  0  0  0  0  0
    0.1004    1.1823    0.6382 C   0  0  0  0  0  0  0  0  0  0  0  0
    1.0500    1.7136    0.5554 H   0  0  0  0  0  0  0  0  0  0  0  0
   -0.6517    1.7114    0.0502 H   0  0  0  0  0  0  0  0  0  0  0  0
   -0.2899    1.1571    1.9985 O   0  0  0  0  0  0  0  0  0  0  0  0
   -0.2167    2.0511    2.3497 H   0  0  0  0  0  0  0  0  0  0  0  0
    1.2890   -1.0433    0.9183 C   0  0  0  0  0  0  0  0  0  0  0  0
    0.9053   -1.7499    1.8512 O   0  0  0  0  0  0  0  0  0  0  0  0
    2.5785   -0.9491    0.5764 N   0  0  0  0  0  0  0  0  0  0  0  0
    2.8077   -0.2744   -0.1412 H   0  0  0  0  0  0  0  0  0  0  0  0
    3.6694   -1.6590    1.2415 C   0  0  0  0  0  0  0  0  0  0  0  0
    3.3903   -2.7032    1.3976 H   0  0  0  0  0  0  0  0  0  0  0  0
    4.5727   -1.6161    0.6323 H   0  0  0  0  0  0  0  0  0  0  0  0
    3.8660   -1.2010    2.2131 H   0  0  0  0  0  0  0  0  0  0  0  0
  5  6  2  0  0  0  0
  5  7  1  0  0  0  0
  2  3  1  0  0  0  0
  2  4  1  0  0  0  0
  2  5  1  0  0  0  0
  1  2  1  0  0  0  0
 16 17  2  0  0  0  0
 16 18  1  0  0  0  0
 14 15  1  0  0  0  0
 11 12  1  0  0  0  0
 11 13  1  0  0  0  0
 11 14  1  0  0  0  0
  9 10  1  0  0  0  0
  9 11  1  0  0  0  0
  9 16  1  0  0  0  0
  7  8  1  0  0  0  0
  7  9  1  0  0  0  0
 20 21  1  0  0  0  0
 20 22  1  0  0  0  0
 20 23  1  0  0  0  0
 18 19  1  0  0  0  0
 18 20  1  0  0  0  0
M  END
$$$$
default_name
  -OEChem-01062215323D

 23 22  0     1  0  0  0  0  0999 V2000
   -2.6721   -3.7279    0.7212 H   0  0  0  0  0  0  0  0  0  0  0  0
   -2.6561   -2.6819    0.4162 C   0  0  0  0  0  0  0  0  0  0  0  0
   -3.2401   -2.0889    1.1172 H   0  0  0  0  0  0  0  0  0  0  0  0
   -3.0671   -2.5859   -0.5858 H   0  0  0  0  0  0  0  0  0  0  0  0
   -1.2261   -2.1939    0.4202 C   0  0  0  0  0  0  0  0  0  0  0  0
   -0.3181   -2.9519    0.7312 O   0  0  0  0  0  0  0  0  0  0  0  0
   -1.0281   -0.9259    0.0662 N   0  0  0  0  0  0  0  0  0  0  0  0
   -1.8301   -0.3519   -0.1548 H   0  0  0  0  0  0  0  0  0  0  0  0
    0.2709   -0.2409    0.0912 C   0  0  1  0  0  0  0  0  0  0  0  0
    0.6481   -0.1666   -0.9290 H   0  0  0  0  0  0  0  0  0  0  0  0
    0.1004    1.1823    0.6382 C   0  0  0  0  0  0  0  0  0  0  0  0
    1.0500    1.7136    0.5554 H   0  0  0  0  0  0  0  0  0  0  0  0
   -0.6517    1.7114    0.0502 H   0  0  0  0  0  0  0  0  0  0  0  0
   -0.2899    1.1571    1.9985 O   0  0  0  0  0  0  0  0  0  0  0  0
   -0.2167    2.0511    2.3497 H   0  0  0  0  0  0  0  0  0  0  0  0
    1.2890   -1.0433    0.9183 C   0  0  0  0  0  0  0  0  0  0  0  0
    0.9046   -1.9501    1.6578 O   0  0  0  0  0  0  0  0  0  0  0  0
    2.5817   -0.7253    0.7898 N   0  0  0  0  0  0  0  0  0  0  0  0
    2.7928    0.0918    0.2324 H   0  0  0  0  0  0  0  0  0  0  0  0
    3.6771   -1.3988    1.4844 C   0  0  0  0  0  0  0  0  0  0  0  0
    3.5418   -2.4810    1.4267 H   0  0  0  0  0  0  0  0  0  0  0  0
    4.6315   -1.1317    1.0299 H   0  0  0  0  0  0  0  0  0  0  0  0
    3.6813   -1.1029    2.5355 H   0  0  0  0  0  0  0  0  0  0  0  0
  5  6  2  0  0  0  0
  5  7  1  0  0  0  0
  2  3  1  0  0  0  0
  2  4  1  0  0  0  0
  2  5  1  0  0  0  0
  1  2  1  0  0  0  0
 16 17  2  0  0  0  0
 16 18  1  0  0  0  0
 14 15  1  0  0  0  0
 11 12  1  0  0  0  0
 11 13  1  0  0  0  0
 11 14  1  0  0  0  0
  9 10  1  0  0  0  0
  9 11  1  0  0  0  0
  9 16  1  0  0  0  0
  7  8  1  0  0  0  0
  7  9  1  0  0  0  0
 20 21  1  0  0  0  0
 20 22  1  0  0  0  0
 20 23  1  0  0  0  0
 18 19  1  0  0  0  0
 18 20  1  0  0  0  0
M  END
$$$$
default_name
  -OEChem-01062215323D

 23 22  0     1  0  0  0  0  0999 V2000
   -2.6721   -3.7279    0.7212 H   0  0  0  0  0  0  0  0  0  0  0  0
   -2.6561   -2.6819    0.4162 C   0  0  0  0  0  0  0  0  0  0  0  0
   -3.2401   -2.0889    1.1172 H   0  0  0  0  0  0  0  0  0  0  0  0
   -3.0671   -2.5859   -0.5858 H   0  0  0  0  0  0  0  0  0  0  0  0
   -1.2261   -2.1939    0.4202 C   0  0  0  0  0  0  0  0  0  0  0  0
   -0.3181   -2.9519    0.7312 O   0  0  0  0  0  0  0  0  0  0  0  0
   -1.0281   -0.9259    0.0662 N   0  0  0  0  0  0  0  0  0  0  0  0
   -1.8301   -0.3519   -0.1548 H   0  0  0  0  0  0  0  0  0  0  0  0
    0.2709   -0.2409    0.0912 C   0  0  1  0  0  0  0  0  0  0  0  0
    0.5224    0.0717   -0.9226 H   0  0  0  0  0  0  0  0  0  0  0  0
    0.1817    1.0161    0.9662 C   0  0  0  0  0  0  0  0  0  0  0  0
    1.1193    1.5697    0.8939 H   0  0  0  0  0  0  0  0  0  0  0  0
   -0.6310    1.6517    0.6099 H   0  0  0  0  0  0  0  0  0  0  0  0
   -0.0410    0.6734    2.3213 O   0  0  0  0  0  0  0  0  0  0  0  0
    0.0828    1.4646    2.8566 H   0  0  0  0  0  0  0  0  0  0  0  0
    1.3740   -1.1923    0.5838 C   0  0  0  0  0  0  0  0  0  0  0  0
    1.0979   -2.3554    0.8797 O   0  0  0  0  0  0  0  0  0  0  0  0
    2.6194   -0.7112    0.6618 N   0  0  0  0  0  0  0  0  0  0  0  0
    2.7333    0.2786    0.4878 H   0  0  0  0  0  0  0  0  0  0  0  0
    3.7844   -1.4838    1.0886 C   0  0  0  0  0  0  0  0  0  0  0  0
    3.7811   -2.4594    0.5979 H   0  0  0  0  0  0  0  0  0  0  0  0
    4.7020   -0.9547    0.8297 H   0  0  0  0  0  0  0  0  0  0  0  0
    3.7470   -1.6362    2.1692 H   0  0  0  0  0  0  0  0  0  0  0  0
  5  6  2  0  0  0  0
  5  7  1  0  0  0  0
  2  3  1  0  0  0  0
  2  4  1  0  0  0  0
  2  5  1  0  0  0  0
  1  2  1  0  0  0  0
 16 17  2  0  0  0  0
 16 18  1  0  0  0  0
 14 15  1  0  0  0  0
 11 12  1  0  0  0  0
 11 13  1  0  0  0  0
 11 14  1  0  0  0  0
  9 10  1  0  0  0  0
  9 11  1  0  0  0  0
  9 16  1  0  0  0  0
  7  8  1  0  0  0  0
  7  9  1  0  0  0  0
 20 21  1  0  0  0  0
 20 22  1  0  0  0  0
 20 23  1  0  0  0  0
 18 19  1  0  0  0  0
 18 20  1  0  0  0  0
M  END
$$$$
default_name
  -OEChem-01062215323D

 23 22  0     1  0  0  0  0  0999 V2000
   -2.6721   -3.7279    0.7212 H   0  0  0  0  0  0  0  0  0  0  0  0
   -2.6561   -2.6819    0.4162 C   0  0  0  0  0  0  0  0  0  0  0  0
   -3.2401   -2.0889    1.1172 H   0  0  0  0  0  0  0  0  0  0  0  0
   -3.0671   -2.5859   -0.5858 H   0  0  0  0  0  0  0  0  0  0  0  0
   -1.2261   -2.1939    0.4202 C   0  0  0  0  0  0  0  0  0  0  0  0
   -0.3181   -2.9519    0.7312 O   0  0  0  0  0  0  0  0  0  0  0  0
   -1.0281   -0.9259    0.0662 N   0  0  0  0  0  0  0  0  0  0  0  0
   -1.8301   -0.3519   -0.1548 H   0  0  0  0  0  0  0  0  0  0  0  0
    0.2709   -0.2409    0.0912 C   0  0  1  0  0  0  0  0  0  0  0  0
    0.5224    0.0717   -0.9226 H   0  0  0  0  0  0  0  0  0  0  0  0
    0.1817    1.0161    0.9662 C   0  0  0  0  0  0  0  0  0  0  0  0
    1.1193    1.5697    0.8939 H   0  0  0  0  0  0  0  0  0  0  0  0
   -0.6310    1.6517    0.6099 H   0  0  0  0  0  0  0  0  0  0  0  0
   -0.0410    0.6734    2.3213 O   0  0  0  0  0  0  0  0  0  0  0  0
    0.0828    1.4646    2.8566 H   0  0  0  0  0  0  0  0  0  0  0  0
    1.3740   -1.1923    0.5838 C   0  0  0  0  0  0  0  0  0  0  0  0
    1.1714   -2.4066    0.6162 O   0  0  0  0  0  0  0  0  0  0  0  0
    2.5398   -0.6519    0.9547 N   0  0  0  0  0  0  0  0  0  0  0  0
    2.5812    0.3583    0.9822 H   0  0  0  0  0  0  0  0  0  0  0  0
    3.6962   -1.4113    1.4259 C   0  0  0  0  0  0  0  0  0  0  0  0
    3.8634   -2.2722    0.7750 H   0  0  0  0  0  0  0  0  0  0  0  0
    4.5863   -0.7814    1.4236 H   0  0  0  0  0  0  0  0  0  0  0  0
    3.5099   -1.7710    2.4399 H   0  0  0  0  0  0  0  0  0  0  0  0
  5  6  2  0  0  0  0
  5  7  1  0  0  0  0
  2  3  1  0  0  0  0
  2  4  1  0  0  0  0
  2  5  1  0  0  0  0
  1  2  1  0  0  0  0
 16 17  2  0  0  0  0
 16 18  1  0  0  0  0
 14 15  1  0  0  0  0
 11 12  1  0  0  0  0
 11 13  1  0  0  0  0
 11 14  1  0  0  0  0
  9 10  1  0  0  0  0
  9 11  1  0  0  0  0
  9 16  1  0  0  0  0
  7  8  1  0  0  0  0
  7  9  1  0  0  0  0
 20 21  1  0  0  0  0
 20 22  1  0  0  0  0
 20 23  1  0  0  0  0
 18 19  1  0  0  0  0
 18 20  1  0  0  0  0
M  END
$$$$
default_name
  -OEChem-01062215323D

 23 22  0     1  0  0  0  0  0999 V2000
   -2.6721   -3.7279    0.7212 H   0  0  0  0  0  0  0  0  0  0  0  0
   -2.6561   -2.6819    0.4162 C   0  0  0  0  0  0  0  0  0  0  0  0
   -3.2401   -2.0889    1.1172 H   0  0  0  0  0  0  0  0  0  0  0  0
   -3.0671   -2.5859   -0.5858 H   0  0  0  0  0  0  0  0  0  0  0  0
   -1.2261   -2.1939    0.4202 C   0  0  0  0  0  0  0  0  0  0  0  0
   -0.3181   -2.9519    0.7312 O   0  0  0  0  0  0  0  0  0  0  0  0
   -1.0281   -0.9259    0.0662 N   0  0  0  0  0  0  0  0  0  0  0  0
   -1.8301   -0.3519   -0.1548 H   0  0  0  0  0  0  0  0  0  0  0  0
    0.2709   -0.2409    0.0912 C   0  0  1  0  0  0  0  0  0  0  0  0
    0.5224    0.0717   -0.9226 H   0  0  0  0  0  0  0  0  0  0  0  0
    0.1817    1.0161    0.9662 C   0  0  0  0  0  0  0  0  0  0  0  0
    1.1193    1.5697    0.8939 H   0  0  0  0  0  0  0  0  0  0  0  0
   -0.6310    1.6517    0.6099 H   0  0  0  0  0  0  0  0  0  0  0  0
   -0.0410    0.6734    2.3213 O   0  0  0  0  0  0  0  0  0  0  0  0
    0.0828    1.4646    2.8566 H   0  0  0  0  0  0  0  0  0  0  0  0
    1.3740   -1.1923    0.5838 C   0  0  0  0  0  0  0  0  0  0  0  0
    1.2889   -2.4010    0.3639 O   0  0  0  0  0  0  0  0  0  0  0  0
    2.4110   -0.6556    1.2358 N   0  0  0  0  0  0  0  0  0  0  0  0
    2.3486    0.3309    1.4502 H   0  0  0  0  0  0  0  0  0  0  0  0
    3.5511   -1.4113    1.7510 C   0  0  0  0  0  0  0  0  0  0  0  0
    3.8990   -2.1175    0.9941 H   0  0  0  0  0  0  0  0  0  0  0  0
    4.3649   -0.7339    2.0110 H   0  0  0  0  0  0  0  0  0  0  0  0
    3.2486   -1.9712    2.6384 H   0  0  0  0  0  0  0  0  0  0  0  0
  5  6  2  0  0  0  0
  5  7  1  0  0  0  0
  2  3  1  0  0  0  0
  2  4  1  0  0  0  0
  2  5  1  0  0  0  0
  1  2  1  0  0  0  0
 16 17  2  0  0  0  0
 16 18  1  0  0  0  0
 14 15  1  0  0  0  0
 11 12  1  0  0  0  0
 11 13  1  0  0  0  0
 11 14  1  0  0  0  0
  9 10  1  0  0  0  0
  9 11  1  0  0  0  0
  9 16  1  0  0  0  0
  7  8  1  0  0  0  0
  7  9  1  0  0  0  0
 20 21  1  0  0  0  0
 20 22  1  0  0  0  0
 20 23  1  0  0  0  0
 18 19  1  0  0  0  0
 18 20  1  0  0  0  0
M  END
$$$$
default_name
  -OEChem-01062215323D

 23 22  0     1  0  0  0  0  0999 V2000
   -2.6721   -3.7279    0.7212 H   0  0  0  0  0  0  0  0  0  0  0  0
   -2.6561   -2.6819    0.4162 C   0  0  0  0  0  0  0  0  0  0  0  0
   -3.2401   -2.0889    1.1172 H   0  0  0  0  0  0  0  0  0  0  0  0
   -3.0671   -2.5859   -0.5858 H   0  0  0  0  0  0  0  0  0  0  0  0
   -1.2261   -2.1939    0.4202 C   0  0  0  0  0  0  0  0  0  0  0  0
   -0.3181   -2.9519    0.7312 O   0  0  0  0  0  0  0  0  0  0  0  0
   -1.0281   -0.9259    0.0662 N   0  0  0  0  0  0  0  0  0  0  0  0
   -1.8301   -0.3519   -0.1548 H   0  0  0  0  0  0  0  0  0  0  0  0
    0.2709   -0.2409    0.0912 C   0  0  1  0  0  0  0  0  0  0  0  0
    0.5224    0.0717   -0.9226 H   0  0  0  0  0  0  0  0  0  0  0  0
    0.1817    1.0161    0.9662 C   0  0  0  0  0  0  0  0  0  0  0  0
    1.1193    1.5697    0.8939 H   0  0  0  0  0  0  0  0  0  0  0  0
   -0.6310    1.6517    0.6099 H   0  0  0  0  0  0  0  0  0  0  0  0
   -0.0410    0.6734    2.3213 O   0  0  0  0  0  0  0  0  0  0  0  0
    0.0828    1.4646    2.8566 H   0  0  0  0  0  0  0  0  0  0  0  0
    1.3740   -1.1923    0.5838 C   0  0  0  0  0  0  0  0  0  0  0  0
    1.4423   -2.3391    0.1401 O   0  0  0  0  0  0  0  0  0  0  0  0
    2.2420   -0.7220    1.4861 N   0  0  0  0  0  0  0  0  0  0  0  0
    2.0512    0.1982    1.8599 H   0  0  0  0  0  0  0  0  0  0  0  0
    3.3588   -1.4837    2.0417 C   0  0  0  0  0  0  0  0  0  0  0  0
    3.8855   -2.0058    1.2401 H   0  0  0  0  0  0  0  0  0  0  0  0
    4.0532   -0.8153    2.5517 H   0  0  0  0  0  0  0  0  0  0  0  0
    2.9811   -2.2230    2.7510 H   0  0  0  0  0  0  0  0  0  0  0  0
  5  6  2  0  0  0  0
  5  7  1  0  0  0  0
  2  3  1  0  0  0  0
  2  4  1  0  0  0  0
  2  5  1  0  0  0  0
  1  2  1  0  0  0  0
 16 17  2  0  0  0  0
 16 18  1  0  0  0  0
 14 15  1  0  0  0  0
 11 12  1  0  0  0  0
 11 13  1  0  0  0  0
 11 14  1  0  0  0  0
  9 10  1  0  0  0  0
  9 11  1  0  0  0  0
  9 16  1  0  0  0  0
  7  8  1  0  0  0  0
  7  9  1  0  0  0  0
 20 21  1  0  0  0  0
 20 22  1  0  0  0  0
 20 23  1  0  0  0  0
 18 19  1  0  0  0  0
 18 20  1  0  0  0  0
M  END
$$$$
default_name
  -OEChem-01062215323D

 23 22  0     1  0  0  0  0  0999 V2000
   -2.6721   -3.7279    0.7212 H   0  0  0  0  0  0  0  0  0  0  0  0
   -2.6561   -2.6819    0.4162 C   0  0  0  0  0  0  0  0  0  0  0  0
   -3.2401   -2.0889    1.1172 H   0  0  0  0  0  0  0  0  0  0  0  0
   -3.0671   -2.5859   -0.5858 H   0  0  0  0  0  0  0  0  0  0  0  0
   -1.2261   -2.1939    0.4202 C   0  0  0  0  0  0  0  0  0  0  0  0
   -0.3181   -2.9519    0.7312 O   0  0  0  0  0  0  0  0  0  0  0  0
   -1.0281   -0.9259    0.0662 N   0  0  0  0  0  0  0  0  0  0  0  0
   -1.8301   -0.3519   -0.1548 H   0  0  0  0  0  0  0  0  0  0  0  0
    0.2709   -0.2409    0.0912 C   0  0  1  0  0  0  0  0  0  0  0  0
    0.5224    0.0717   -0.9226 H   0  0  0  0  0  0  0  0  0  0  0  0
    0.1817    1.0161    0.9662 C   0  0  0  0  0  0  0  0  0  0  0  0
    1.1193    1.5697    0.8939 H   0  0  0  0  0  0  0  0  0  0  0  0
   -0.6310    1.6517    0.6099 H   0  0  0  0  0  0  0  0  0  0  0  0
   -0.0410    0.6734    2.3213 O   0  0  0  0  0  0  0  0  0  0  0  0
    0.0828    1.4646    2.8566 H   0  0  0  0  0  0  0  0  0  0  0  0
    1.3740   -1.1923    0.5838 C   0  0  0  0  0  0  0  0  0  0  0  0
    1.6212   -2.2249   -0.0400 O   0  0  0  0  0  0  0  0  0  0  0  0
    2.0441   -0.8466    1.6884 N   0  0  0  0  0  0  0  0  0  0  0  0
    1.7093   -0.0307    2.1834 H   0  0  0  0  0  0  0  0  0  0  0  0
    3.1325   -1.6235    2.2784 C   0  0  0  0  0  0  0  0  0  0  0  0
    3.8237   -1.9447    1.4963 H   0  0  0  0  0  0  0  0  0  0  0  0
    3.6722   -1.0203    3.0090 H   0  0  0  0  0  0  0  0  0  0  0  0
    2.7255   -2.5094    2.7703 H   0  0  0  0  0  0  0  0  0  0  0  0
  5  6  2  0  0  0  0
  5  7  1  0  0  0  0
  2  3  1  0  0  0  0
  2  4  1  0  0  0  0
  2  5  1  0  0  0  0
  1  2  1  0  0  0  0
 16 17  2  0  0  0  0
 16 18  1  0  0  0  0
 14 15  1  0  0  0  0
 11 12  1  0  0  0  0
 11 13  1  0  0  0  0
 11 14  1  0  0  0  0
  9 10  1  0  0  0  0
  9 11  1  0  0  0  0
  9 16  1  0  0  0  0
  7  8  1  0  0  0  0
  7  9  1  0  0  0  0
 20 21  1  0  0  0  0
 20 22  1  0  0  0  0
 20 23  1  0  0  0  0
 18 19  1  0  0  0  0
 18 20  1  0  0  0  0
M  END
$$$$
default_name
  -OEChem-01062215323D

 23 22  0     1  0  0  0  0  0999 V2000
   -2.6721   -3.7279    0.7212 H   0  0  0  0  0  0  0  0  0  0  0  0
   -2.6561   -2.6819    0.4162 C   0  0  0  0  0  0  0  0  0  0  0  0
   -3.2401   -2.0889    1.1172 H   0  0  0  0  0  0  0  0  0  0  0  0
   -3.0671   -2.5859   -0.5858 H   0  0  0  0  0  0  0  0  0  0  0  0
   -1.2261   -2.1939    0.4202 C   0  0  0  0  0  0  0  0  0  0  0  0
   -0.3181   -2.9519    0.7312 O   0  0  0  0  0  0  0  0  0  0  0  0
   -1.0281   -0.9259    0.0662 N   0  0  0  0  0  0  0  0  0  0  0  0
   -1.8301   -0.3519   -0.1548 H   0  0  0  0  0  0  0  0  0  0  0  0
    0.2709   -0.2409    0.0912 C   0  0  1  0  0  0  0  0  0  0  0  0
    0.5224    0.0717   -0.9226 H   0  0  0  0  0  0  0  0  0  0  0  0
    0.1817    1.0161    0.9662 C   0  0  0  0  0  0  0  0  0  0  0  0
    1.1193    1.5697    0.8939 H   0  0  0  0  0  0  0  0  0  0  0  0
   -0.6310    1.6517    0.6099 H   0  0  0  0  0  0  0  0  0  0  0  0
   -0.0410    0.6734    2.3213 O   0  0  0  0  0  0  0  0  0  0  0  0
    0.0828    1.4646    2.8566 H   0  0  0  0  0  0  0  0  0  0  0  0
    1.3740   -1.1923    0.5838 C   0  0  0  0  0  0  0  0  0  0  0  0
    1.8134   -2.0664   -0.1642 O   0  0  0  0  0  0  0  0  0  0  0  0
    1.8309   -1.0210    1.8290 N   0  0  0  0  0  0  0  0  0  0  0  0
    1.3463   -0.3401    2.3986 H   0  0  0  0  0  0  0  0  0  0  0  0
    2.8876   -1.8213    2.4448 C   0  0  0  0  0  0  0  0  0  0  0  0
    3.7180   -1.9384    1.7452 H   0  0  0  0  0  0  0  0  0  0  0  0
    3.2480   -1.3347    3.3516 H   0  0  0  0  0  0  0  0  0  0  0  0
    2.4993   -2.8108    2.6948 H   0  0  0  0  0  0  0  0  0  0  0  0
  5  6  2  0  0  0  0
  5  7  1  0  0  0  0
  2  3  1  0  0  0  0
  2  4  1  0  0  0  0
  2  5  1  0  0  0  0
  1  2  1  0  0  0  0
 16 17  2  0  0  0  0
 16 18  1  0  0  0  0
 14 15  1  0  0  0  0
 11 12  1  0  0  0  0
 11 13  1  0  0  0  0
 11 14  1  0  0  0  0
  9 10  1  0  0  0  0
  9 11  1  0  0  0  0
  9 16  1  0  0  0  0
  7  8  1  0  0  0  0
  7  9  1  0  0  0  0
 20 21  1  0  0  0  0
 20 22  1  0  0  0  0
 20 23  1  0  0  0  0
 18 19  1  0  0  0  0
 18 20  1  0  0  0  0
M  END
$$$$
default_name
  -OEChem-01062215323D

 23 22  0     1  0  0  0  0  0999 V2000
   -2.6721   -3.7279    0.7212 H   0  0  0  0  0  0  0  0  0  0  0  0
   -2.6561   -2.6819    0.4162 C   0  0  0  0  0  0  0  0  0  0  0  0
   -3.2401   -2.0889    1.1172 H   0  0  0  0  0  0  0  0  0  0  0  0
   -3.0671   -2.5859   -0.5858 H   0  0  0  0  0  0  0  0  0  0  0  0
   -1.2261   -2.1939    0.4202 C   0  0  0  0  0  0  0  0  0  0  0  0
   -0.3181   -2.9519    0.7312 O   0  0  0  0  0  0  0  0  0  0  0  0
   -1.0281   -0.9259    0.0662 N   0  0  0  0  0  0  0  0  0  0  0  0
   -1.8301   -0.3519   -0.1548 H   0  0  0  0  0  0  0  0  0  0  0  0
    0.2709   -0.2409    0.0912 C   0  0  1  0  0  0  0  0  0  0  0  0
    0.5224    0.0717   -0.9226 H   0  0  0  0  0  0  0  0  0  0  0  0
    0.1817    1.0161    0.9662 C   0  0  0  0  0  0  0  0  0  0  0  0
    1.1193    1.5697    0.8939 H   0  0  0  0  0  0  0  0  0  0  0  0
   -0.6310    1.6517    0.6099 H   0  0  0  0  0  0  0  0  0  0  0  0
   -0.0410    0.6734    2.3213 O   0  0  0  0  0  0  0  0  0  0  0  0
    0.0828    1.4646    2.8566 H   0  0  0  0  0  0  0  0  0  0  0  0
    1.3740   -1.1923    0.5838 C   0  0  0  0  0  0  0  0  0  0  0  0
    2.0057   -1.8743   -0.2239 O   0  0  0  0  0  0  0  0  0  0  0  0
    1.6169   -1.2332    1.8983 N   0  0  0  0  0  0  0  0  0  0  0  0
    0.9868   -0.7091    2.4909 H   0  0  0  0  0  0  0  0  0  0  0  0
    2.6408   -2.0635    2.5296 C   0  0  0  0  0  0  0  0  0  0  0  0
    3.5755   -1.9872    1.9699 H   0  0  0  0  0  0  0  0  0  0  0  0
    2.8095   -1.7372    3.5562 H   0  0  0  0  0  0  0  0  0  0  0  0
    2.3179   -3.1066    2.5297 H   0  0  0  0  0  0  0  0  0  0  0  0
  5  6  2  0  0  0  0
  5  7  1  0  0  0  0
  2  3  1  0  0  0  0
  2  4  1  0  0  0  0
  2  5  1  0  0  0  0
  1  2  1  0  0  0  0
 16 17  2  0  0  0  0
 16 18  1  0  0  0  0
 14 15  1  0  0  0  0
 11 12  1  0  0  0  0
 11 13  1  0  0  0  0
 11 14  1  0  0  0  0
  9 10  1  0  0  0  0
  9 11  1  0  0  0  0
  9 16  1  0  0  0  0
  7  8  1  0  0  0  0
  7  9  1  0  0  0  0
 20 21  1  0  0  0  0
 20 22  1  0  0  0  0
 20 23  1  0  0  0  0
 18 19  1  0  0  0  0
 18 20  1  0  0  0  0
M  END
$$$$
default_name
  -OEChem-01062215323D

 23 22  0     1  0  0  0  0  0999 V2000
   -2.6721   -3.7279    0.7212 H   0  0  0  0  0  0  0  0  0  0  0  0
   -2.6561   -2.6819    0.4162 C   0  0  0  0  0  0  0  0  0  0  0  0
   -3.2401   -2.0889    1.1172 H   0  0  0  0  0  0  0  0  0  0  0  0
   -3.0671   -2.5859   -0.5858 H   0  0  0  0  0  0  0  0  0  0  0  0
   -1.2261   -2.1939    0.4202 C   0  0  0  0  0  0  0  0  0  0  0  0
   -0.3181   -2.9519    0.7312 O   0  0  0  0  0  0  0  0  0  0  0  0
   -1.0281   -0.9259    0.0662 N   0  0  0  0  0  0  0  0  0  0  0  0
   -1.8301   -0.3519   -0.1548 H   0  0  0  0  0  0  0  0  0  0  0  0
    0.2709   -0.2409    0.0912 C   0  0  1  0  0  0  0  0  0  0  0  0
    0.5224    0.0717   -0.9226 H   0  0  0  0  0  0  0  0  0  0  0  0
    0.1817    1.0161    0.9662 C   0  0  0  0  0  0  0  0  0  0  0  0
    1.1193    1.5697    0.8939 H   0  0  0  0  0  0  0  0  0  0  0  0
   -0.6310    1.6517    0.6099 H   0  0  0  0  0  0  0  0  0  0  0  0
   -0.0410    0.6734    2.3213 O   0  0  0  0  0  0  0  0  0  0  0  0
    0.0828    1.4646    2.8566 H   0  0  0  0  0  0  0  0  0  0  0  0
    1.3740   -1.1923    0.5838 C   0  0  0  0  0  0  0  0  0  0  0  0
    2.1852   -1.6617   -0.2151 O   0  0  0  0  0  0  0  0  0  0  0  0
    1.4167   -1.4688    1.8916 N   0  0  0  0  0  0  0  0  0  0  0  0
    0.6554   -1.1125    2.4540 H   0  0  0  0  0  0  0  0  0  0  0  0
    2.4090   -2.3337    2.5270 C   0  0  0  0  0  0  0  0  0  0  0  0
    3.4060   -2.0880    2.1551 H   0  0  0  0  0  0  0  0  0  0  0  0
    2.3865   -2.2004    3.6089 H   0  0  0  0  0  0  0  0  0  0  0  0
    2.1936   -3.3768    2.2862 H   0  0  0  0  0  0  0  0  0  0  0  0
  5  6  2  0  0  0  0
  5  7  1  0  0  0  0
  2  3  1  0  0  0  0
  2  4  1  0  0  0  0
  2  5  1  0  0  0  0
  1  2  1  0  0  0  0
 16 17  2  0  0  0  0
 16 18  1  0  0  0  0
 14 15  1  0  0  0  0
 11 12  1  0  0  0  0
 11 13  1  0  0  0  0
 11 14  1  0  0  0  0
  9 10  1  0  0  0  0
  9 11  1  0  0  0  0
  9 16  1  0  0  0  0
  7  8  1  0  0  0  0
  7  9  1  0  0  0  0
 20 21  1  0  0  0  0
 20 22  1  0  0  0  0
 20 23  1  0  0  0  0
 18 19  1  0  0  0  0
 18 20  1  0  0  0  0
M  END
$$$$
default_name
  -OEChem-01062215323D

 23 22  0     1  0  0  0  0  0999 V2000
   -2.6721   -3.7279    0.7212 H   0  0  0  0  0  0  0  0  0  0  0  0
   -2.6561   -2.6819    0.4162 C   0  0  0  0  0  0  0  0  0  0  0  0
   -3.2401   -2.0889    1.1172 H   0  0  0  0  0  0  0  0  0  0  0  0
   -3.0671   -2.5859   -0.5858 H   0  0  0  0  0  0  0  0  0  0  0  0
   -1.2261   -2.1939    0.4202 C   0  0  0  0  0  0  0  0  0  0  0  0
   -0.3181   -2.9519    0.7312 O   0  0  0  0  0  0  0  0  0  0  0  0
   -1.0281   -0.9259    0.0662 N   0  0  0  0  0  0  0  0  0  0  0  0
   -1.8301   -0.3519   -0.1548 H   0  0  0  0  0  0  0  0  0  0  0  0
    0.2709   -0.2409    0.0912 C   0  0  1  0  0  0  0  0  0  0  0  0
    0.5224    0.0717   -0.9226 H   0  0  0  0  0  0  0  0  0  0  0  0
    0.1817    1.0161    0.9662 C   0  0  0  0  0  0  0  0  0  0  0  0
    1.1193    1.5697    0.8939 H   0  0  0  0  0  0  0  0  0  0  0  0
   -0.6310    1.6517    0.6099 H   0  0  0  0  0  0  0  0  0  0  0  0
   -0.0410    0.6734    2.3213 O   0  0  0  0  0  0  0  0  0  0  0  0
    0.0828    1.4646    2.8566 H   0  0  0  0  0  0  0  0  0  0  0  0
    1.3740   -1.1923    0.5838 C   0  0  0  0  0  0  0  0  0  0  0  0
    2.3395   -1.4431   -0.1384 O   0  0  0  0  0  0  0  0  0  0  0  0
    1.2440   -1.7118    1.8093 N   0  0  0  0  0  0  0  0  0  0  0  0
    0.3747   -1.5227    2.2904 H   0  0  0  0  0  0  0  0  0  0  0  0
    2.2078   -2.6134    2.4372 C   0  0  0  0  0  0  0  0  0  0  0  0
    3.2209   -2.2337    2.2881 H   0  0  0  0  0  0  0  0  0  0  0  0
    2.0079   -2.6926    3.5061 H   0  0  0  0  0  0  0  0  0  0  0  0
    2.1350   -3.6028    1.9810 H   0  0  0  0  0  0  0  0  0  0  0  0
  5  6  2  0  0  0  0
  5  7  1  0  0  0  0
  2  3  1  0  0  0  0
  2  4  1  0  0  0  0
  2  5  1  0  0  0  0
  1  2  1  0  0  0  0
 16 17  2  0  0  0  0
 16 18  1  0  0  0  0
 14 15  1  0  0  0  0
 11 12  1  0  0  0  0
 11 13  1  0  0  0  0
 11 14  1  0  0  0  0
  9 10  1  0  0  0  0
  9 11  1  0  0  0  0
  9 16  1  0  0  0  0
  7  8  1  0  0  0  0
  7  9  1  0  0  0  0
 20 21  1  0  0  0  0
 20 22  1  0  0  0  0
 20 23  1  0  0  0  0
 18 19  1  0  0  0  0
 18 20  1  0  0  0  0
M  END
$$$$
default_name
  -OEChem-01062215323D

 23 22  0     1  0  0  0  0  0999 V2000
   -2.6721   -3.7279    0.7212 H   0  0  0  0  0  0  0  0  0  0  0  0
   -2.6561   -2.6819    0.4162 C   0  0  0  0  0  0  0  0  0  0  0  0
   -3.2401   -2.0889    1.1172 H   0  0  0  0  0  0  0  0  0  0  0  0
   -3.0671   -2.5859   -0.5858 H   0  0  0  0  0  0  0  0  0  0  0  0
   -1.2261   -2.1939    0.4202 C   0  0  0  0  0  0  0  0  0  0  0  0
   -0.3181   -2.9519    0.7312 O   0  0  0  0  0  0  0  0  0  0  0  0
   -1.0281   -0.9259    0.0662 N   0  0  0  0  0  0  0  0  0  0  0  0
   -1.8301   -0.3519   -0.1548 H   0  0  0  0  0  0  0  0  0  0  0  0
    0.2709   -0.2409    0.0912 C   0  0  1  0  0  0  0  0  0  0  0  0
    0.5224    0.0717   -0.9226 H   0  0  0  0  0  0  0  0  0  0  0  0
    0.1817    1.0161    0.9662 C   0  0  0  0  0  0  0  0  0  0  0  0
    1.1193    1.5697    0.8939 H   0  0  0  0  0  0  0  0  0  0  0  0
   -0.6310    1.6517    0.6099 H   0  0  0  0  0  0  0  0  0  0  0  0
   -0.0410    0.6734    2.3213 O   0  0  0  0  0  0  0  0  0  0  0  0
    0.0828    1.4646    2.8566 H   0  0  0  0  0  0  0  0  0  0  0  0
    1.3740   -1.1923    0.5838 C   0  0  0  0  0  0  0  0  0  0  0  0
    2.4581   -1.2334    0.0009 O   0  0  0  0  0  0  0  0  0  0  0  0
    1.1104   -1.9455    1.6571 N   0  0  0  0  0  0  0  0  0  0  0  0
    0.1637   -1.9119    2.0113 H   0  0  0  0  0  0  0  0  0  0  0  0
    2.0511   -2.8836    2.2663 C   0  0  0  0  0  0  0  0  0  0  0  0
    3.0329   -2.4145    2.3598 H   0  0  0  0  0  0  0  0  0  0  0  0
    1.6994   -3.1804    3.2548 H   0  0  0  0  0  0  0  0  0  0  0  0
    2.1460   -3.7694    1.6348 H   0  0  0  0  0  0  0  0  0  0  0  0
  5  6  2  0  0  0  0
  5  7  1  0  0  0  0
  2  3  1  0  0  0  0
  2  4  1  0  0  0  0
  2  5  1  0  0  0  0
  1  2  1  0  0  0  0
 16 17  2  0  0  0  0
 16 18  1  0  0  0  0
 14 15  1  0  0  0  0
 11 12  1  0  0  0  0
 11 13  1  0  0  0  0
 11 14  1  0  0  0  0
  9 10  1  0  0  0  0
  9 11  1  0  0  0  0
  9 16  1  0  0  0  0
  7  8  1  0  0  0  0
  7  9  1  0  0  0  0
 20 21  1  0  0  0  0
 20 22  1  0  0  0  0
 20 23  1  0  0  0  0
 18 19  1  0  0  0  0
 18 20  1  0  0  0  0
M  END
$$$$
default_name
  -OEChem-01062215323D

 23 22  0     1  0  0  0  0  0999 V2000
   -2.6721   -3.7279    0.7212 H   0  0  0  0  0  0  0  0  0  0  0  0
   -2.6561   -2.6819    0.4162 C   0  0  0  0  0  0  0  0  0  0  0  0
   -3.2401   -2.0889    1.1172 H   0  0  0  0  0  0  0  0  0  0  0  0
   -3.0671   -2.5859   -0.5858 H   0  0  0  0  0  0  0  0  0  0  0  0
   -1.2261   -2.1939    0.4202 C   0  0  0  0  0  0  0  0  0  0  0  0
   -0.3181   -2.9519    0.7312 O   0  0  0  0  0  0  0  0  0  0  0  0
   -1.0281   -0.9259    0.0662 N   0  0  0  0  0  0  0  0  0  0  0  0
   -1.8301   -0.3519   -0.1548 H   0  0  0  0  0  0  0  0  0  0  0  0
    0.2709   -0.2409    0.0912 C   0  0  1  0  0  0  0  0  0  0  0  0
    0.5224    0.0717   -0.9226 H   0  0  0  0  0  0  0  0  0  0  0  0
    0.1817    1.0161    0.9662 C   0  0  0  0  0  0  0  0  0  0  0  0
    1.1193    1.5697    0.8939 H   0  0  0  0  0  0  0  0  0  0  0  0
   -0.6310    1.6517    0.6099 H   0  0  0  0  0  0  0  0  0  0  0  0
   -0.0410    0.6734    2.3213 O   0  0  0  0  0  0  0  0  0  0  0  0
    0.0828    1.4646    2.8566 H   0  0  0  0  0  0  0  0  0  0  0  0
    1.3740   -1.1923    0.5838 C   0  0  0  0  0  0  0  0  0  0  0  0
    2.5330   -1.0469    0.1935 O   0  0  0  0  0  0  0  0  0  0  0  0
    1.0252   -2.1540    1.4452 N   0  0  0  0  0  0  0  0  0  0  0  0
    0.0369   -2.2535    1.6356 H   0  0  0  0  0  0  0  0  0  0  0  0
    1.9495   -3.1259    2.0260 C   0  0  0  0  0  0  0  0  0  0  0  0
    2.8548   -2.6181    2.3655 H   0  0  0  0  0  0  0  0  0  0  0  0
    1.4822   -3.6304    2.8721 H   0  0  0  0  0  0  0  0  0  0  0  0
    2.2258   -3.8651    1.2712 H   0  0  0  0  0  0  0  0  0  0  0  0
  5  6  2  0  0  0  0
  5  7  1  0  0  0  0
  2  3  1  0  0  0  0
  2  4  1  0  0  0  0
  2  5  1  0  0  0  0
  1  2  1  0  0  0  0
 16 17  2  0  0  0  0
 16 18  1  0  0  0  0
 14 15  1  0  0  0  0
 11 12  1  0  0  0  0
 11 13  1  0  0  0  0
 11 14  1  0  0  0  0
  9 10  1  0  0  0  0
  9 11  1  0  0  0  0
  9 16  1  0  0  0  0
  7  8  1  0  0  0  0
  7  9  1  0  0  0  0
 20 21  1  0  0  0  0
 20 22  1  0  0  0  0
 20 23  1  0  0  0  0
 18 19  1  0  0  0  0
 18 20  1  0  0  0  0
M  END
$$$$
default_name
  -OEChem-01062215323D

 23 22  0     1  0  0  0  0  0999 V2000
   -2.6721   -3.7279    0.7212 H   0  0  0  0  0  0  0  0  0  0  0  0
   -2.6561   -2.6819    0.4162 C   0  0  0  0  0  0  0  0  0  0  0  0
   -3.2401   -2.0889    1.1172 H   0  0  0  0  0  0  0  0  0  0  0  0
   -3.0671   -2.5859   -0.5858 H   0  0  0  0  0  0  0  0  0  0  0  0
   -1.2261   -2.1939    0.4202 C   0  0  0  0  0  0  0  0  0  0  0  0
   -0.3181   -2.9519    0.7312 O   0  0  0  0  0  0  0  0  0  0  0  0
   -1.0281   -0.9259    0.0662 N   0  0  0  0  0  0  0  0  0  0  0  0
   -1.8301   -0.3519   -0.1548 H   0  0  0  0  0  0  0  0  0  0  0  0
    0.2709   -0.2409    0.0912 C   0  0  1  0  0  0  0  0  0  0  0  0
    0.5224    0.0717   -0.9226 H   0  0  0  0  0  0  0  0  0  0  0  0
    0.1817    1.0161    0.9662 C   0  0  0  0  0  0  0  0  0  0  0  0
    1.1193    1.5697    0.8939 H   0  0  0  0  0  0  0  0  0  0  0  0
   -0.6310    1.6517    0.6099 H   0  0  0  0  0  0  0  0  0  0  0  0
   -0.0410    0.6734    2.3213 O   0  0  0  0  0  0  0  0  0  0  0  0
    0.0828    1.4646    2.8566 H   0  0  0  0  0  0  0  0  0  0  0  0
    1.3740   -1.1923    0.5838 C   0  0  0  0  0  0  0  0  0  0  0  0
    2.5590   -0.8962    0.4261 O   0  0  0  0  0  0  0  0  0  0  0  0
    0.9941   -2.3232    1.1882 N   0  0  0  0  0  0  0  0  0  0  0  0
    0.0029   -2.5242    1.1890 H   0  0  0  0  0  0  0  0  0  0  0  0
    1.9100   -3.3237    1.7326 C   0  0  0  0  0  0  0  0  0  0  0  0
    2.6988   -2.8305    2.3046 H   0  0  0  0  0  0  0  0  0  0  0  0
    1.3710   -4.0121    2.3841 H   0  0  0  0  0  0  0  0  0  0  0  0
    2.3691   -3.8834    0.9151 H   0  0  0  0  0  0  0  0  0  0  0  0
  5  6  2  0  0  0  0
  5  7  1  0  0  0  0
  2  3  1  0  0  0  0
  2  4  1  0  0  0  0
  2  5  1  0  0  0  0
  1  2  1  0  0  0  0
 16 17  2  0  0  0  0
 16 18  1  0  0  0  0
 14 15  1  0  0  0  0
 11 12  1  0  0  0  0
 11 13  1  0  0  0  0
 11 14  1  0  0  0  0
  9 10  1  0  0  0  0
  9 11  1  0  0  0  0
  9 16  1  0  0  0  0
  7  8  1  0  0  0  0
  7  9  1  0  0  0  0
 20 21  1  0  0  0  0
 20 22  1  0  0  0  0
 20 23  1  0  0  0  0
 18 19  1  0  0  0  0
 18 20  1  0  0  0  0
M  END
$$$$
default_name
  -OEChem-01062215323D

 23 22  0     1  0  0  0  0  0999 V2000
   -2.6721   -3.7279    0.7212 H   0  0  0  0  0  0  0  0  0  0  0  0
   -2.6561   -2.6819    0.4162 C   0  0  0  0  0  0  0  0  0  0  0  0
   -3.2401   -2.0889    1.1172 H   0  0  0  0  0  0  0  0  0  0  0  0
   -3.0671   -2.5859   -0.5858 H   0  0  0  0  0  0  0  0  0  0  0  0
   -1.2261   -2.1939    0.4202 C   0  0  0  0  0  0  0  0  0  0  0  0
   -0.3181   -2.9519    0.7312 O   0  0  0  0  0  0  0  0  0  0  0  0
   -1.0281   -0.9259    0.0662 N   0  0  0  0  0  0  0  0  0  0  0  0
   -1.8301   -0.3519   -0.1548 H   0  0  0  0  0  0  0  0  0  0  0  0
    0.2709   -0.2409    0.0912 C   0  0  1  0  0  0  0  0  0  0  0  0
    0.5224    0.0717   -0.9226 H   0  0  0  0  0  0  0  0  0  0  0  0
    0.1817    1.0161    0.9662 C   0  0  0  0  0  0  0  0  0  0  0  0
    1.1193    1.5697    0.8939 H   0  0  0  0  0  0  0  0  0  0  0  0
   -0.6310    1.6517    0.6099 H   0  0  0  0  0  0  0  0  0  0  0  0
   -0.0410    0.6734    2.3213 O   0  0  0  0  0  0  0  0  0  0  0  0
    0.0828    1.4646    2.8566 H   0  0  0  0  0  0  0  0  0  0  0  0
    1.3740   -1.1923    0.5838 C   0  0  0  0  0  0  0  0  0  0  0  0
    2.5344   -0.7918    0.6829 O   0  0  0  0  0  0  0  0  0  0  0  0
    1.0192   -2.4414    0.9036 N   0  0  0  0  0  0  0  0  0  0  0  0
    0.0640   -2.7056    0.7019 H   0  0  0  0  0  0  0  0  0  0  0  0
    1.9351   -3.4635    1.4062 C   0  0  0  0  0  0  0  0  0  0  0  0
    2.5754   -3.0373    2.1814 H   0  0  0  0  0  0  0  0  0  0  0  0
    1.3733   -4.2994    1.8240 H   0  0  0  0  0  0  0  0  0  0  0  0
    2.5660   -3.8230    0.5906 H   0  0  0  0  0  0  0  0  0  0  0  0
  5  6  2  0  0  0  0
  5  7  1  0  0  0  0
  2  3  1  0  0  0  0
  2  4  1  0  0  0  0
  2  5  1  0  0  0  0
  1  2  1  0  0  0  0
 16 17  2  0  0  0  0
 16 18  1  0  0  0  0
 14 15  1  0  0  0  0
 11 12  1  0  0  0  0
 11 13  1  0  0  0  0
 11 14  1  0  0  0  0
  9 10  1  0  0  0  0
  9 11  1  0  0  0  0
  9 16  1  0  0  0  0
  7  8  1  0  0  0  0
  7  9  1  0  0  0  0
 20 21  1  0  0  0  0
 20 22  1  0  0  0  0
 20 23  1  0  0  0  0
 18 19  1  0  0  0  0
 18 20  1  0  0  0  0
M  END
$$$$
default_name
  -OEChem-01062215323D

 23 22  0     1  0  0  0  0  0999 V2000
   -2.6721   -3.7279    0.7212 H   0  0  0  0  0  0  0  0  0  0  0  0
   -2.6561   -2.6819    0.4162 C   0  0  0  0  0  0  0  0  0  0  0  0
   -3.2401   -2.0889    1.1172 H   0  0  0  0  0  0  0  0  0  0  0  0
   -3.0671   -2.5859   -0.5858 H   0  0  0  0  0  0  0  0  0  0  0  0
   -1.2261   -2.1939    0.4202 C   0  0  0  0  0  0  0  0  0  0  0  0
   -0.3181   -2.9519    0.7312 O   0  0  0  0  0  0  0  0  0  0  0  0
   -1.0281   -0.9259    0.0662 N   0  0  0  0  0  0  0  0  0  0  0  0
   -1.8301   -0.3519   -0.1548 H   0  0  0  0  0  0  0  0  0  0  0  0
    0.2709   -0.2409    0.0912 C   0  0  1  0  0  0  0  0  0  0  0  0
    0.5224    0.0717   -0.9226 H   0  0  0  0  0  0  0  0  0  0  0  0
    0.1817    1.0161    0.9662 C   0  0  0  0  0  0  0  0  0  0  0  0
    1.1193    1.5697    0.8939 H   0  0  0  0  0  0  0  0  0  0  0  0
   -0.6310    1.6517    0.6099 H   0  0  0  0  0  0  0  0  0  0  0  0
   -0.0410    0.6734    2.3213 O   0  0  0  0  0  0  0  0  0  0  0  0
    0.0828    1.4646    2.8566 H   0  0  0  0  0  0  0  0  0  0  0  0
    1.3740   -1.1923    0.5838 C   0  0  0  0  0  0  0  0  0  0  0  0
    2.4609   -0.7406    0.9464 O   0  0  0  0  0  0  0  0  0  0  0  0
    1.0988   -2.5007    0.6107 N   0  0  0  0  0  0  0  0  0  0  0  0
    0.2160   -2.7853    0.2075 H   0  0  0  0  0  0  0  0  0  0  0  0
    2.0233   -3.5360    1.0689 C   0  0  0  0  0  0  0  0  0  0  0  0
    2.4931   -3.2245    2.0043 H   0  0  0  0  0  0  0  0  0  0  0  0
    1.4891   -4.4728    1.2301 H   0  0  0  0  0  0  0  0  0  0  0  0
    2.8032   -3.6882    0.3200 H   0  0  0  0  0  0  0  0  0  0  0  0
  5  6  2  0  0  0  0
  5  7  1  0  0  0  0
  2  3  1  0  0  0  0
  2  4  1  0  0  0  0
  2  5  1  0  0  0  0
  1  2  1  0  0  0  0
 16 17  2  0  0  0  0
 16 18  1  0  0  0  0
 14 15  1  0  0  0  0
 11 12  1  0  0  0  0
 11 13  1  0  0  0  0
 11 14  1  0  0  0  0
  9 10  1  0  0  0  0
  9 11  1  0  0  0  0
  9 16  1  0  0  0  0
  7  8  1  0  0  0  0
  7  9  1  0  0  0  0
 20 21  1  0  0  0  0
 20 22  1  0  0  0  0
 20 23  1  0  0  0  0
 18 19  1  0  0  0  0
 18 20  1  0  0  0  0
M  END
$$$$
default_name
  -OEChem-01062215323D

 23 22  0     1  0  0  0  0  0999 V2000
   -2.6721   -3.7279    0.7212 H   0  0  0  0  0  0  0  0  0  0  0  0
   -2.6561   -2.6819    0.4162 C   0  0  0  0  0  0  0  0  0  0  0  0
   -3.2401   -2.0889    1.1172 H   0  0  0  0  0  0  0  0  0  0  0  0
   -3.0671   -2.5859   -0.5858 H   0  0  0  0  0  0  0  0  0  0  0  0
   -1.2261   -2.1939    0.4202 C   0  0  0  0  0  0  0  0  0  0  0  0
   -0.3181   -2.9519    0.7312 O   0  0  0  0  0  0  0  0  0  0  0  0
   -1.0281   -0.9259    0.0662 N   0  0  0  0  0  0  0  0  0  0  0  0
   -1.8301   -0.3519   -0.1548 H   0  0  0  0  0  0  0  0  0  0  0  0
    0.2709   -0.2409    0.0912 C   0  0  1  0  0  0  0  0  0  0  0  0
    0.5224    0.0717   -0.9226 H   0  0  0  0  0  0  0  0  0  0  0  0
    0.1817    1.0161    0.9662 C   0  0  0  0  0  0  0  0  0  0  0  0
    1.1193    1.5697    0.8939 H   0  0  0  0  0  0  0  0  0  0  0  0
   -0.6310    1.6517    0.6099 H   0  0  0  0  0  0  0  0  0  0  0  0
   -0.0410    0.6734    2.3213 O   0  0  0  0  0  0  0  0  0  0  0  0
    0.0828    1.4646    2.8566 H   0  0  0  0  0  0  0  0  0  0  0  0
    1.3740   -1.1923    0.5838 C   0  0  0  0  0  0  0  0  0  0  0  0
    2.3434   -0.7462    1.1987 O   0  0  0  0  0  0  0  0  0  0  0  0
    1.2276   -2.4971    0.3296 N   0  0  0  0  0  0  0  0  0  0  0  0
    0.4487   -2.7579   -0.2605 H   0  0  0  0  0  0  0  0  0  0  0  0
    2.1684   -3.5360    0.7438 C   0  0  0  0  0  0  0  0  0  0  0  0
    2.4576   -3.3792    1.7852 H   0  0  0  0  0  0  0  0  0  0  0  0
    1.7104   -4.5203    0.6427 H   0  0  0  0  0  0  0  0  0  0  0  0
    3.0645   -3.4880    0.1215 H   0  0  0  0  0  0  0  0  0  0  0  0
  5  6  2  0  0  0  0
  5  7  1  0  0  0  0
  2  3  1  0  0  0  0
  2  4  1  0  0  0  0
  2  5  1  0  0  0  0
  1  2  1  0  0  0  0
 16 17  2  0  0  0  0
 16 18  1  0  0  0  0
 14 15  1  0  0  0  0
 11 12  1  0  0  0  0
 11 13  1  0  0  0  0
 11 14  1  0  0  0  0
  9 10  1  0  0  0  0
  9 11  1  0  0  0  0
  9 16  1  0  0  0  0
  7  8  1  0  0  0  0
  7  9  1  0  0  0  0
 20 21  1  0  0  0  0
 20 22  1  0  0  0  0
 20 23  1  0  0  0  0
 18 19  1  0  0  0  0
 18 20  1  0  0  0  0
M  END
$$$$
default_name
  -OEChem-01062215323D

 23 22  0     1  0  0  0  0  0999 V2000
   -2.6721   -3.7279    0.7212 H   0  0  0  0  0  0  0  0  0  0  0  0
   -2.6561   -2.6819    0.4162 C   0  0  0  0  0  0  0  0  0  0  0  0
   -3.2401   -2.0889    1.1172 H   0  0  0  0  0  0  0  0  0  0  0  0
   -3.0671   -2.5859   -0.5858 H   0  0  0  0  0  0  0  0  0  0  0  0
   -1.2261   -2.1939    0.4202 C   0  0  0  0  0  0  0  0  0  0  0  0
   -0.3181   -2.9519    0.7312 O   0  0  0  0  0  0  0  0  0  0  0  0
   -1.0281   -0.9259    0.0662 N   0  0  0  0  0  0  0  0  0  0  0  0
   -1.8301   -0.3519   -0.1548 H   0  0  0  0  0  0  0  0  0  0  0  0
    0.2709   -0.2409    0.0912 C   0  0  1  0  0  0  0  0  0  0  0  0
    0.5224    0.0717   -0.9226 H   0  0  0  0  0  0  0  0  0  0  0  0
    0.1817    1.0161    0.9662 C   0  0  0  0  0  0  0  0  0  0  0  0
    1.1193    1.5697    0.8939 H   0  0  0  0  0  0  0  0  0  0  0  0
   -0.6310    1.6517    0.6099 H   0  0  0  0  0  0  0  0  0  0  0  0
   -0.0410    0.6734    2.3213 O   0  0  0  0  0  0  0  0  0  0  0  0
    0.0828    1.4646    2.8566 H   0  0  0  0  0  0  0  0  0  0  0  0
    1.3740   -1.1923    0.5838 C   0  0  0  0  0  0  0  0  0  0  0  0
    2.1900   -0.8081    1.4225 O   0  0  0  0  0  0  0  0  0  0  0  0
    1.3966   -2.4306    0.0793 N   0  0  0  0  0  0  0  0  0  0  0  0
    0.7461   -2.6252   -0.6702 H   0  0  0  0  0  0  0  0  0  0  0  0
    2.3607   -3.4636    0.4530 C   0  0  0  0  0  0  0  0  0  0  0  0
    2.4711   -3.4909    1.5392 H   0  0  0  0  0  0  0  0  0  0  0  0
    2.0221   -4.4389    0.1020 H   0  0  0  0  0  0  0  0  0  0  0  0
    3.3320   -3.2362    0.0089 H   0  0  0  0  0  0  0  0  0  0  0  0
  5  6  2  0  0  0  0
  5  7  1  0  0  0  0
  2  3  1  0  0  0  0
  2  4  1  0  0  0  0
  2  5  1  0  0  0  0
  1  2  1  0  0  0  0
 16 17  2  0  0  0  0
 16 18  1  0  0  0  0
 14 15  1  0  0  0  0
 11 12  1  0  0  0  0
 11 13  1  0  0  0  0
 11 14  1  0  0  0  0
  9 10  1  0  0  0  0
  9 11  1  0  0  0  0
  9 16  1  0  0  0  0
  7  8  1  0  0  0  0
  7  9  1  0  0  0  0
 20 21  1  0  0  0  0
 20 22  1  0  0  0  0
 20 23  1  0  0  0  0
 18 19  1  0  0  0  0
 18 20  1  0  0  0  0
M  END
$$$$
default_name
  -OEChem-01062215323D

 23 22  0     1  0  0  0  0  0999 V2000
   -2.6721   -3.7279    0.7212 H   0  0  0  0  0  0  0  0  0  0  0  0
   -2.6561   -2.6819    0.4162 C   0  0  0  0  0  0  0  0  0  0  0  0
   -3.2401   -2.0889    1.1172 H   0  0  0  0  0  0  0  0  0  0  0  0
   -3.0671   -2.5859   -0.5858 H   0  0  0  0  0  0  0  0  0  0  0  0
   -1.2261   -2.1939    0.4202 C   0  0  0  0  0  0  0  0  0  0  0  0
   -0.3181   -2.9519    0.7312 O   0  0  0  0  0  0  0  0  0  0  0  0
   -1.0281   -0.9259    0.0662 N   0  0  0  0  0  0  0  0  0  0  0  0
   -1.8301   -0.3519   -0.1548 H   0  0  0  0  0  0  0  0  0  0  0  0
    0.2709   -0.2409    0.0912 C   0  0  1  0  0  0  0  0  0  0  0  0
    0.5224    0.0717   -0.9226 H   0  0  0  0  0  0  0  0  0  0  0  0
    0.1817    1.0161    0.9662 C   0  0  0  0  0  0  0  0  0  0  0  0
    1.1193    1.5697    0.8939 H   0  0  0  0  0  0  0  0  0  0  0  0
   -0.6310    1.6517    0.6099 H   0  0  0  0  0  0  0  0  0  0  0  0
   -0.0410    0.6734    2.3213 O   0  0  0  0  0  0  0  0  0  0  0  0
    0.0828    1.4646    2.8566 H   0  0  0  0  0  0  0  0  0  0  0  0
    1.3740   -1.1923    0.5838 C   0  0  0  0  0  0  0  0  0  0  0  0
    2.0111   -0.9223    1.6026 O   0  0  0  0  0  0  0  0  0  0  0  0
    1.5945   -2.3060   -0.1230 N   0  0  0  0  0  0  0  0  0  0  0  0
    1.0879   -2.3963   -0.9937 H   0  0  0  0  0  0  0  0  0  0  0  0
    2.5870   -3.3238    0.2164 C   0  0  0  0  0  0  0  0  0  0  0  0
    2.5328   -3.5520    1.2830 H   0  0  0  0  0  0  0  0  0  0  0  0
    2.4031   -4.2339   -0.3552 H   0  0  0  0  0  0  0  0  0  0  0  0
    3.5876   -2.9498   -0.0104 H   0  0  0  0  0  0  0  0  0  0  0  0
  5  6  2  0  0  0  0
  5  7  1  0  0  0  0
  2  3  1  0  0  0  0
  2  4  1  0  0  0  0
  2  5  1  0  0  0  0
  1  2  1  0  0  0  0
 16 17  2  0  0  0  0
 16 18  1  0  0  0  0
 14 15  1  0  0  0  0
 11 12  1  0  0  0  0
 11 13  1  0  0  0  0
 11 14  1  0  0  0  0
  9 10  1  0  0  0  0
  9 11  1  0  0  0  0
  9 16  1  0  0  0  0
  7  8  1  0  0  0  0
  7  9  1  0  0  0  0
 20 21  1  0  0  0  0
 20 22  1  0  0  0  0
 20 23  1  0  0  0  0
 18 19  1  0  0  0  0
 18 20  1  0  0  0  0
M  END
$$$$
default_name
  -OEChem-01062215323D

 23 22  0     1  0  0  0  0  0999 V2000
   -2.6721   -3.7279    0.7212 H   0  0  0  0  0  0  0  0  0  0  0  0
   -2.6561   -2.6819    0.4162 C   0  0  0  0  0  0  0  0  0  0  0  0
   -3.2401   -2.0889    1.1172 H   0  0  0  0  0  0  0  0  0  0  0  0
   -3.0671   -2.5859   -0.5858 H   0  0  0  0  0  0  0  0  0  0  0  0
   -1.2261   -2.1939    0.4202 C   0  0  0  0  0  0  0  0  0  0  0  0
   -0.3181   -2.9519    0.7312 O   0  0  0  0  0  0  0  0  0  0  0  0
   -1.0281   -0.9259    0.0662 N   0  0  0  0  0  0  0  0  0  0  0  0
   -1.8301   -0.3519   -0.1548 H   0  0  0  0  0  0  0  0  0  0  0  0
    0.2709   -0.2409    0.0912 C   0  0  1  0  0  0  0  0  0  0  0  0
    0.5224    0.0717   -0.9226 H   0  0  0  0  0  0  0  0  0  0  0  0
    0.1817    1.0161    0.9662 C   0  0  0  0  0  0  0  0  0  0  0  0
    1.1193    1.5697    0.8939 H   0  0  0  0  0  0  0  0  0  0  0  0
   -0.6310    1.6517    0.6099 H   0  0  0  0  0  0  0  0  0  0  0  0
   -0.0410    0.6734    2.3213 O   0  0  0  0  0  0  0  0  0  0  0  0
    0.0828    1.4646    2.8566 H   0  0  0  0  0  0  0  0  0  0  0  0
    1.3740   -1.1923    0.5838 C   0  0  0  0  0  0  0  0  0  0  0  0
    1.8189   -1.0808    1.7268 O   0  0  0  0  0  0  0  0  0  0  0  0
    1.8077   -2.1316   -0.2636 N   0  0  0  0  0  0  0  0  0  0  0  0
    1.4510   -2.0869   -1.2089 H   0  0  0  0  0  0  0  0  0  0  0  0
    2.8319   -3.1260    0.0500 C   0  0  0  0  0  0  0  0  0  0  0  0
    2.6385   -3.5583    1.0341 H   0  0  0  0  0  0  0  0  0  0  0  0
    2.8273   -3.9195   -0.6979 H   0  0  0  0  0  0  0  0  0  0  0  0
    3.8138   -2.6484    0.0651 H   0  0  0  0  0  0  0  0  0  0  0  0
  5  6  2  0  0  0  0
  5  7  1  0  0  0  0
  2  3  1  0  0  0  0
  2  4  1  0  0  0  0
  2  5  1  0  0  0  0
  1  2  1  0  0  0  0
 16 17  2  0  0  0  0
 16 18  1  0  0  0  0
 14 15  1  0  0  0  0
 11 12  1  0  0  0  0
 11 13  1  0  0  0  0
 11 14  1  0  0  0  0
  9 10  1  0  0  0  0
  9 11  1  0  0  0  0
  9 16  1  0  0  0  0
  7  8  1  0  0  0  0
  7  9  1  0  0  0  0
 20 21  1  0  0  0  0
 20 22  1  0  0  0  0
 20 23  1  0  0  0  0
 18 19  1  0  0  0  0
 18 20  1  0  0  0  0
M  END
$$$$
default_name
  -OEChem-01062215323D

 23 22  0     1  0  0  0  0  0999 V2000
   -2.6721   -3.7279    0.7212 H   0  0  0  0  0  0  0  0  0  0  0  0
   -2.6561   -2.6819    0.4162 C   0  0  0  0  0  0  0  0  0  0  0  0
   -3.2401   -2.0889    1.1172 H   0  0  0  0  0  0  0  0  0  0  0  0
   -3.0671   -2.5859   -0.5858 H   0  0  0  0  0  0  0  0  0  0  0  0
   -1.2261   -2.1939    0.4202 C   0  0  0  0  0  0  0  0  0  0  0  0
   -0.3181   -2.9519    0.7312 O   0  0  0  0  0  0  0  0  0  0  0  0
   -1.0281   -0.9259    0.0662 N   0  0  0  0  0  0  0  0  0  0  0  0
   -1.8301   -0.3519   -0.1548 H   0  0  0  0  0  0  0  0  0  0  0  0
    0.2709   -0.2409    0.0912 C   0  0  1  0  0  0  0  0  0  0  0  0
    0.5224    0.0717   -0.9226 H   0  0  0  0  0  0  0  0  0  0  0  0
    0.1817    1.0161    0.9662 C   0  0  0  0  0  0  0  0  0  0  0  0
    1.1193    1.5697    0.8939 H   0  0  0  0  0  0  0  0  0  0  0  0
   -0.6310    1.6517    0.6099 H   0  0  0  0  0  0  0  0  0  0  0  0
   -0.0410    0.6734    2.3213 O   0  0  0  0  0  0  0  0  0  0  0  0
    0.0828    1.4646    2.8566 H   0  0  0  0  0  0  0  0  0  0  0  0
    1.3740   -1.1923    0.5838 C   0  0  0  0  0  0  0  0  0  0  0  0
    1.6266   -1.2729    1.7865 O   0  0  0  0  0  0  0  0  0  0  0  0
    2.0217   -1.9194   -0.3329 N   0  0  0  0  0  0  0  0  0  0  0  0
    1.8104   -1.7179   -1.3012 H   0  0  0  0  0  0  0  0  0  0  0  0
    3.0787   -2.8838   -0.0348 C   0  0  0  0  0  0  0  0  0  0  0  0
    2.7810   -3.5095    0.8094 H   0  0  0  0  0  0  0  0  0  0  0  0
    3.2659   -3.5170   -0.9025 H   0  0  0  0  0  0  0  0  0  0  0  0
    3.9952   -2.3526    0.2302 H   0  0  0  0  0  0  0  0  0  0  0  0
  5  6  2  0  0  0  0
  5  7  1  0  0  0  0
  2  3  1  0  0  0  0
  2  4  1  0  0  0  0
  2  5  1  0  0  0  0
  1  2  1  0  0  0  0
 16 17  2  0  0  0  0
 16 18  1  0  0  0  0
 14 15  1  0  0  0  0
 11 12  1  0  0  0  0
 11 13  1  0  0  0  0
 11 14  1  0  0  0  0
  9 10  1  0  0  0  0
  9 11  1  0  0  0  0
  9 16  1  0  0  0  0
  7  8  1  0  0  0  0
  7  9  1  0  0  0  0
 20 21  1  0  0  0  0
 20 22  1  0  0  0  0
 20 23  1  0  0  0  0
 18 19  1  0  0  0  0
 18 20  1  0  0  0  0
M  END
$$$$
default_name
  -OEChem-01062215323D

 23 22  0     1  0  0  0  0  0999 V2000
   -2.6721   -3.7279    0.7212 H   0  0  0  0  0  0  0  0  0  0  0  0
   -2.6561   -2.6819    0.4162 C   0  0  0  0  0  0  0  0  0  0  0  0
   -3.2401   -2.0889    1.1172 H   0  0  0  0  0  0  0  0  0  0  0  0
   -3.0671   -2.5859   -0.5858 H   0  0  0  0  0  0  0  0  0  0  0  0
   -1.2261   -2.1939    0.4202 C   0  0  0  0  0  0  0  0  0  0  0  0
   -0.3181   -2.9519    0.7312 O   0  0  0  0  0  0  0  0  0  0  0  0
   -1.0281   -0.9259    0.0662 N   0  0  0  0  0  0  0  0  0  0  0  0
   -1.8301   -0.3519   -0.1548 H   0  0  0  0  0  0  0  0  0  0  0  0
    0.2709   -0.2409    0.0912 C   0  0  1  0  0  0  0  0  0  0  0  0
    0.5224    0.0717   -0.9226 H   0  0  0  0  0  0  0  0  0  0  0  0
    0.1817    1.0161    0.9662 C   0  0  0  0  0  0  0  0  0  0  0  0
    1.1193    1.5697    0.8939 H   0  0  0  0  0  0  0  0  0  0  0  0
   -0.6310    1.6517    0.6099 H   0  0  0  0  0  0  0  0  0  0  0  0
   -0.0410    0.6734    2.3213 O   0  0  0  0  0  0  0  0  0  0  0  0
    0.0828    1.4646    2.8566 H   0  0  0  0  0  0  0  0  0  0  0  0
    1.3740   -1.1923    0.5838 C   0  0  0  0  0  0  0  0  0  0  0  0
    1.4471   -1.4855    1.7777 O   0  0  0  0  0  0  0  0  0  0  0  0
    2.2219   -1.6838   -0.3262 N   0  0  0  0  0  0  0  0  0  0  0  0
    2.1418   -1.3145   -1.2643 H   0  0  0  0  0  0  0  0  0  0  0  0
    3.3105   -2.6136   -0.0322 C   0  0  0  0  0  0  0  0  0  0  0  0
    2.9506   -3.4087    0.6242 H   0  0  0  0  0  0  0  0  0  0  0  0
    3.6888   -3.0538   -0.9552 H   0  0  0  0  0  0  0  0  0  0  0  0
    4.1194   -2.0824    0.4737 H   0  0  0  0  0  0  0  0  0  0  0  0
  5  6  2  0  0  0  0
  5  7  1  0  0  0  0
  2  3  1  0  0  0  0
  2  4  1  0  0  0  0
  2  5  1  0  0  0  0
  1  2  1  0  0  0  0
 16 17  2  0  0  0  0
 16 18  1  0  0  0  0
 14 15  1  0  0  0  0
 11 12  1  0  0  0  0
 11 13  1  0  0  0  0
 11 14  1  0  0  0  0
  9 10  1  0  0  0  0
  9 11  1  0  0  0  0
  9 16  1  0  0  0  0
  7  8  1  0  0  0  0
  7  9  1  0  0  0  0
 20 21  1  0  0  0  0
 20 22  1  0  0  0  0
 20 23  1  0  0  0  0
 18 19  1  0  0  0  0
 18 20  1  0  0  0  0
M  END
$$$$
default_name
  -OEChem-01062215323D

 23 22  0     1  0  0  0  0  0999 V2000
   -2.6721   -3.7279    0.7212 H   0  0  0  0  0  0  0  0  0  0  0  0
   -2.6561   -2.6819    0.4162 C   0  0  0  0  0  0  0  0  0  0  0  0
   -3.2401   -2.0889    1.1172 H   0  0  0  0  0  0  0  0  0  0  0  0
   -3.0671   -2.5859   -0.5858 H   0  0  0  0  0  0  0  0  0  0  0  0
   -1.2261   -2.1939    0.4202 C   0  0  0  0  0  0  0  0  0  0  0  0
   -0.3181   -2.9519    0.7312 O   0  0  0  0  0  0  0  0  0  0  0  0
   -1.0281   -0.9259    0.0662 N   0  0  0  0  0  0  0  0  0  0  0  0
   -1.8301   -0.3519   -0.1548 H   0  0  0  0  0  0  0  0  0  0  0  0
    0.2709   -0.2409    0.0912 C   0  0  1  0  0  0  0  0  0  0  0  0
    0.5224    0.0717   -0.9226 H   0  0  0  0  0  0  0  0  0  0  0  0
    0.1817    1.0161    0.9662 C   0  0  0  0  0  0  0  0  0  0  0  0
    1.1193    1.5697    0.8939 H   0  0  0  0  0  0  0  0  0  0  0  0
   -0.6310    1.6517    0.6099 H   0  0  0  0  0  0  0  0  0  0  0  0
   -0.0410    0.6734    2.3213 O   0  0  0  0  0  0  0  0  0  0  0  0
    0.0828    1.4646    2.8566 H   0  0  0  0  0  0  0  0  0  0  0  0
    1.3740   -1.1923    0.5838 C   0  0  0  0  0  0  0  0  0  0  0  0
    1.2928   -1.7041    1.7011 O   0  0  0  0  0  0  0  0  0  0  0  0
    2.3946   -1.4408   -0.2439 N   0  0  0  0  0  0  0  0  0  0  0  0
    2.4226   -0.9043   -1.1007 H   0  0  0  0  0  0  0  0  0  0  0  0
    3.5117   -2.3339    0.0576 C   0  0  0  0  0  0  0  0  0  0  0  0
    3.1357   -3.2630    0.4912 H   0  0  0  0  0  0  0  0  0  0  0  0
    4.0675   -2.5616   -0.8524 H   0  0  0  0  0  0  0  0  0  0  0  0
    4.1781   -1.8564    0.7789 H   0  0  0  0  0  0  0  0  0  0  0  0
  5  6  2  0  0  0  0
  5  7  1  0  0  0  0
  2  3  1  0  0  0  0
  2  4  1  0  0  0  0
  2  5  1  0  0  0  0
  1  2  1  0  0  0  0
 16 17  2  0  0  0  0
 16 18  1  0  0  0  0
 14 15  1  0  0  0  0
 11 12  1  0  0  0  0
 11 13  1  0  0  0  0
 11 14  1  0  0  0  0
  9 10  1  0  0  0  0
  9 11  1  0  0  0  0
  9 16  1  0  0  0  0
  7  8  1  0  0  0  0
  7  9  1  0  0  0  0
 20 21  1  0  0  0  0
 20 22  1  0  0  0  0
 20 23  1  0  0  0  0
 18 19  1  0  0  0  0
 18 20  1  0  0  0  0
M  END
$$$$
default_name
  -OEChem-01062215323D

 23 22  0     1  0  0  0  0  0999 V2000
   -2.6721   -3.7279    0.7212 H   0  0  0  0  0  0  0  0  0  0  0  0
   -2.6561   -2.6819    0.4162 C   0  0  0  0  0  0  0  0  0  0  0  0
   -3.2401   -2.0889    1.1172 H   0  0  0  0  0  0  0  0  0  0  0  0
   -3.0671   -2.5859   -0.5858 H   0  0  0  0  0  0  0  0  0  0  0  0
   -1.2261   -2.1939    0.4202 C   0  0  0  0  0  0  0  0  0  0  0  0
   -0.3181   -2.9519    0.7312 O   0  0  0  0  0  0  0  0  0  0  0  0
   -1.0281   -0.9259    0.0662 N   0  0  0  0  0  0  0  0  0  0  0  0
   -1.8301   -0.3519   -0.1548 H   0  0  0  0  0  0  0  0  0  0  0  0
    0.2709   -0.2409    0.0912 C   0  0  1  0  0  0  0  0  0  0  0  0
    0.5224    0.0717   -0.9226 H   0  0  0  0  0  0  0  0  0  0  0  0
    0.1817    1.0161    0.9662 C   0  0  0  0  0  0  0  0  0  0  0  0
    1.1193    1.5697    0.8939 H   0  0  0  0  0  0  0  0  0  0  0  0
   -0.6310    1.6517    0.6099 H   0  0  0  0  0  0  0  0  0  0  0  0
   -0.0410    0.6734    2.3213 O   0  0  0  0  0  0  0  0  0  0  0  0
    0.0828    1.4646    2.8566 H   0  0  0  0  0  0  0  0  0  0  0  0
    1.3740   -1.1923    0.5838 C   0  0  0  0  0  0  0  0  0  0  0  0
    1.1742   -1.9138    1.5617 O   0  0  0  0  0  0  0  0  0  0  0  0
    2.5282   -1.2071   -0.0916 N   0  0  0  0  0  0  0  0  0  0  0  0
    2.6336   -0.5151   -0.8216 H   0  0  0  0  0  0  0  0  0  0  0  0
    3.6684   -2.0637    0.2285 C   0  0  0  0  0  0  0  0  0  0  0  0
    3.3236   -3.0822    0.4195 H   0  0  0  0  0  0  0  0  0  0  0  0
    4.3759   -2.0738   -0.6011 H   0  0  0  0  0  0  0  0  0  0  0  0
    4.1671   -1.6898    1.1251 H   0  0  0  0  0  0  0  0  0  0  0  0
  5  6  2  0  0  0  0
  5  7  1  0  0  0  0
  2  3  1  0  0  0  0
  2  4  1  0  0  0  0
  2  5  1  0  0  0  0
  1  2  1  0  0  0  0
 16 17  2  0  0  0  0
 16 18  1  0  0  0  0
 14 15  1  0  0  0  0
 11 12  1  0  0  0  0
 11 13  1  0  0  0  0
 11 14  1  0  0  0  0
  9 10  1  0  0  0  0
  9 11  1  0  0  0  0
  9 16  1  0  0  0  0
  7  8  1  0  0  0  0
  7  9  1  0  0  0  0
 20 21  1  0  0  0  0
 20 22  1  0  0  0  0
 20 23  1  0  0  0  0
 18 19  1  0  0  0  0
 18 20  1  0  0  0  0
M  END
$$$$
default_name
  -OEChem-01062215323D

 23 22  0     1  0  0  0  0  0999 V2000
   -2.6721   -3.7279    0.7212 H   0  0  0  0  0  0  0  0  0  0  0  0
   -2.6561   -2.6819    0.4162 C   0  0  0  0  0  0  0  0  0  0  0  0
   -3.2401   -2.0889    1.1172 H   0  0  0  0  0  0  0  0  0  0  0  0
   -3.0671   -2.5859   -0.5858 H   0  0  0  0  0  0  0  0  0  0  0  0
   -1.2261   -2.1939    0.4202 C   0  0  0  0  0  0  0  0  0  0  0  0
   -0.3181   -2.9519    0.7312 O   0  0  0  0  0  0  0  0  0  0  0  0
   -1.0281   -0.9259    0.0662 N   0  0  0  0  0  0  0  0  0  0  0  0
   -1.8301   -0.3519   -0.1548 H   0  0  0  0  0  0  0  0  0  0  0  0
    0.2709   -0.2409    0.0912 C   0  0  1  0  0  0  0  0  0  0  0  0
    0.5224    0.0717   -0.9226 H   0  0  0  0  0  0  0  0  0  0  0  0
    0.1817    1.0161    0.9662 C   0  0  0  0  0  0  0  0  0  0  0  0
    1.1193    1.5697    0.8939 H   0  0  0  0  0  0  0  0  0  0  0  0
   -0.6310    1.6517    0.6099 H   0  0  0  0  0  0  0  0  0  0  0  0
   -0.0410    0.6734    2.3213 O   0  0  0  0  0  0  0  0  0  0  0  0
    0.0828    1.4646    2.8566 H   0  0  0  0  0  0  0  0  0  0  0  0
    1.3740   -1.1923    0.5838 C   0  0  0  0  0  0  0  0  0  0  0  0
    1.0993   -2.1003    1.3692 O   0  0  0  0  0  0  0  0  0  0  0  0
    2.6134   -0.9986    0.1202 N   0  0  0  0  0  0  0  0  0  0  0  0
    2.7604   -0.1735   -0.4459 H   0  0  0  0  0  0  0  0  0  0  0  0
    3.7700   -1.8214    0.4688 C   0  0  0  0  0  0  0  0  0  0  0  0
    3.5017   -2.8786    0.4138 H   0  0  0  0  0  0  0  0  0  0  0  0
    4.5931   -1.6237   -0.2184 H   0  0  0  0  0  0  0  0  0  0  0  0
    4.0873   -1.5942    1.4886 H   0  0  0  0  0  0  0  0  0  0  0  0
  5  6  2  0  0  0  0
  5  7  1  0  0  0  0
  2  3  1  0  0  0  0
  2  4  1  0  0  0  0
  2  5  1  0  0  0  0
  1  2  1  0  0  0  0
 16 17  2  0  0  0  0
 16 18  1  0  0  0  0
 14 15  1  0  0  0  0
 11 12  1  0  0  0  0
 11 13  1  0  0  0  0
 11 14  1  0  0  0  0
  9 10  1  0  0  0  0
  9 11  1  0  0  0  0
  9 16  1  0  0  0  0
  7  8  1  0  0  0  0
  7  9  1  0  0  0  0
 20 21  1  0  0  0  0
 20 22  1  0  0  0  0
 20 23  1  0  0  0  0
 18 19  1  0  0  0  0
 18 20  1  0  0  0  0
M  END
$$$$
default_name
  -OEChem-01062215323D

 23 22  0     1  0  0  0  0  0999 V2000
   -2.6721   -3.7279    0.7212 H   0  0  0  0  0  0  0  0  0  0  0  0
   -2.6561   -2.6819    0.4162 C   0  0  0  0  0  0  0  0  0  0  0  0
   -3.2401   -2.0889    1.1172 H   0  0  0  0  0  0  0  0  0  0  0  0
   -3.0671   -2.5859   -0.5858 H   0  0  0  0  0  0  0  0  0  0  0  0
   -1.2261   -2.1939    0.4202 C   0  0  0  0  0  0  0  0  0  0  0  0
   -0.3181   -2.9519    0.7312 O   0  0  0  0  0  0  0  0  0  0  0  0
   -1.0281   -0.9259    0.0662 N   0  0  0  0  0  0  0  0  0  0  0  0
   -1.8301   -0.3519   -0.1548 H   0  0  0  0  0  0  0  0  0  0  0  0
    0.2709   -0.2409    0.0912 C   0  0  1  0  0  0  0  0  0  0  0  0
    0.5224    0.0717   -0.9226 H   0  0  0  0  0  0  0  0  0  0  0  0
    0.1817    1.0161    0.9662 C   0  0  0  0  0  0  0  0  0  0  0  0
    1.1193    1.5697    0.8939 H   0  0  0  0  0  0  0  0  0  0  0  0
   -0.6310    1.6517    0.6099 H   0  0  0  0  0  0  0  0  0  0  0  0
   -0.0410    0.6734    2.3213 O   0  0  0  0  0  0  0  0  0  0  0  0
    0.0828    1.4646    2.8566 H   0  0  0  0  0  0  0  0  0  0  0  0
    1.3740   -1.1923    0.5838 C   0  0  0  0  0  0  0  0  0  0  0  0
    1.0733   -2.2510    1.1365 O   0  0  0  0  0  0  0  0  0  0  0  0
    2.6445   -0.8294    0.3772 N   0  0  0  0  0  0  0  0  0  0  0  0
    2.7944    0.0972    0.0007 H   0  0  0  0  0  0  0  0  0  0  0  0
    3.8096   -1.6236    0.7622 C   0  0  0  0  0  0  0  0  0  0  0  0
    3.6578   -2.6662    0.4747 H   0  0  0  0  0  0  0  0  0  0  0  0
    4.7044   -1.2420    0.2696 H   0  0  0  0  0  0  0  0  0  0  0  0
    3.9440   -1.5759    1.8448 H   0  0  0  0  0  0  0  0  0  0  0  0
  5  6  2  0  0  0  0
  5  7  1  0  0  0  0
  2  3  1  0  0  0  0
  2  4  1  0  0  0  0
  2  5  1  0  0  0  0
  1  2  1  0  0  0  0
 16 17  2  0  0  0  0
 16 18  1  0  0  0  0
 14 15  1  0  0  0  0
 11 12  1  0  0  0  0
 11 13  1  0  0  0  0
 11 14  1  0  0  0  0
  9 10  1  0  0  0  0
  9 11  1  0  0  0  0
  9 16  1  0  0  0  0
  7  8  1  0  0  0  0
  7  9  1  0  0  0  0
 20 21  1  0  0  0  0
 20 22  1  0  0  0  0
 20 23  1  0  0  0  0
 18 19  1  0  0  0  0
 18 20  1  0  0  0  0
M  END
$$$$
default_name
  -OEChem-01062215323D

 23 22  0     1  0  0  0  0  0999 V2000
   -2.6721   -3.7279    0.7212 H   0  0  0  0  0  0  0  0  0  0  0  0
   -2.6561   -2.6819    0.4162 C   0  0  0  0  0  0  0  0  0  0  0  0
   -3.2401   -2.0889    1.1172 H   0  0  0  0  0  0  0  0  0  0  0  0
   -3.0671   -2.5859   -0.5858 H   0  0  0  0  0  0  0  0  0  0  0  0
   -1.2261   -2.1939    0.4202 C   0  0  0  0  0  0  0  0  0  0  0  0
   -0.3181   -2.9519    0.7312 O   0  0  0  0  0  0  0  0  0  0  0  0
   -1.0281   -0.9259    0.0662 N   0  0  0  0  0  0  0  0  0  0  0  0
   -1.8301   -0.3519   -0.1548 H   0  0  0  0  0  0  0  0  0  0  0  0
    0.2709   -0.2409    0.0912 C   0  0  1  0  0  0  0  0  0  0  0  0
    0.4006    0.2998   -0.8467 H   0  0  0  0  0  0  0  0  0  0  0  0
    0.3005    0.7809    1.2352 C   0  0  0  0  0  0  0  0  0  0  0  0
    1.2278    1.3536    1.1795 H   0  0  0  0  0  0  0  0  0  0  0  0
   -0.5432    1.4660    1.1344 H   0  0  0  0  0  0  0  0  0  0  0  0
    0.2404    0.1334    2.4923 O   0  0  0  0  0  0  0  0  0  0  0  0
    0.4359    0.7834    3.1759 H   0  0  0  0  0  0  0  0  0  0  0  0
    1.4163   -1.2592    0.2164 C   0  0  0  0  0  0  0  0  0  0  0  0
    1.1670   -2.4641    0.2689 O   0  0  0  0  0  0  0  0  0  0  0  0
    2.6666   -0.7858    0.2523 N   0  0  0  0  0  0  0  0  0  0  0  0
    2.7681    0.2195    0.2974 H   0  0  0  0  0  0  0  0  0  0  0  0
    3.8672   -1.6138    0.3475 C   0  0  0  0  0  0  0  0  0  0  0  0
    3.7951   -2.4513   -0.3497 H   0  0  0  0  0  0  0  0  0  0  0  0
    4.7518   -1.0228    0.1083 H   0  0  0  0  0  0  0  0  0  0  0  0
    3.9597   -2.0099    1.3609 H   0  0  0  0  0  0  0  0  0  0  0  0
  5  6  2  0  0  0  0
  5  7  1  0  0  0  0
  2  3  1  0  0  0  0
  2  4  1  0  0  0  0
  2  5  1  0  0  0  0
  1  2  1  0  0  0  0
 16 17  2  0  0  0  0
 16 18  1  0  0  0  0
 14 15  1  0  0  0  0
 11 12  1  0  0  0  0
 11 13  1  0  0  0  0
 11 14  1  0  0  0  0
  9 10  1  0  0  0  0
  9 11  1  0  0  0  0
  9 16  1  0  0  0  0
  7  8  1  0  0  0  0
  7  9  1  0  0  0  0
 20 21  1  0  0  0  0
 20 22  1  0  0  0  0
 20 23  1  0  0  0  0
 18 19  1  0  0  0  0
 18 20  1  0  0  0  0
M  END
$$$$
default_name
  -OEChem-01062215323D

 23 22  0     1  0  0  0  0  0999 V2000
   -2.6721   -3.7279    0.7212 H   0  0  0  0  0  0  0  0  0  0  0  0
   -2.6561   -2.6819    0.4162 C   0  0  0  0  0  0  0  0  0  0  0  0
   -3.2401   -2.0889    1.1172 H   0  0  0  0  0  0  0  0  0  0  0  0
   -3.0671   -2.5859   -0.5858 H   0  0  0  0  0  0  0  0  0  0  0  0
   -1.2261   -2.1939    0.4202 C   0  0  0  0  0  0  0  0  0  0  0  0
   -0.3181   -2.9519    0.7312 O   0  0  0  0  0  0  0  0  0  0  0  0
   -1.0281   -0.9259    0.0662 N   0  0  0  0  0  0  0  0  0  0  0  0
   -1.8301   -0.3519   -0.1548 H   0  0  0  0  0  0  0  0  0  0  0  0
    0.2709   -0.2409    0.0912 C   0  0  1  0  0  0  0  0  0  0  0  0
    0.4006    0.2998   -0.8467 H   0  0  0  0  0  0  0  0  0  0  0  0
    0.3005    0.7809    1.2352 C   0  0  0  0  0  0  0  0  0  0  0  0
    1.2278    1.3536    1.1795 H   0  0  0  0  0  0  0  0  0  0  0  0
   -0.5432    1.4660    1.1344 H   0  0  0  0  0  0  0  0  0  0  0  0
    0.2404    0.1334    2.4923 O   0  0  0  0  0  0  0  0  0  0  0  0
    0.4359    0.7834    3.1759 H   0  0  0  0  0  0  0  0  0  0  0  0
    1.4163   -1.2592    0.2164 C   0  0  0  0  0  0  0  0  0  0  0  0
    1.2075   -2.4523   -0.0063 O   0  0  0  0  0  0  0  0  0  0  0  0
    2.6236   -0.7965    0.5584 N   0  0  0  0  0  0  0  0  0  0  0  0
    2.6779    0.1812    0.8114 H   0  0  0  0  0  0  0  0  0  0  0  0
    3.8213   -1.6220    0.7005 C   0  0  0  0  0  0  0  0  0  0  0  0
    3.9000   -2.3081   -0.1456 H   0  0  0  0  0  0  0  0  0  0  0  0
    4.7105   -0.9920    0.7357 H   0  0  0  0  0  0  0  0  0  0  0  0
    3.7558   -2.2074    1.6199 H   0  0  0  0  0  0  0  0  0  0  0  0
  5  6  2  0  0  0  0
  5  7  1  0  0  0  0
  2  3  1  0  0  0  0
  2  4  1  0  0  0  0
  2  5  1  0  0  0  0
  1  2  1  0  0  0  0
 16 17  2  0  0  0  0
 16 18  1  0  0  0  0
 14 15  1  0  0  0  0
 11 12  1  0  0  0  0
 11 13  1  0  0  0  0
 11 14  1  0  0  0  0
  9 10  1  0  0  0  0
  9 11  1  0  0  0  0
  9 16  1  0  0  0  0
  7  8  1  0  0  0  0
  7  9  1  0  0  0  0
 20 21  1  0  0  0  0
 20 22  1  0  0  0  0
 20 23  1  0  0  0  0
 18 19  1  0  0  0  0
 18 20  1  0  0  0  0
M  END
$$$$
default_name
  -OEChem-01062215323D

 23 22  0     1  0  0  0  0  0999 V2000
   -2.6721   -3.7279    0.7212 H   0  0  0  0  0  0  0  0  0  0  0  0
   -2.6561   -2.6819    0.4162 C   0  0  0  0  0  0  0  0  0  0  0  0
   -3.2401   -2.0889    1.1172 H   0  0  0  0  0  0  0  0  0  0  0  0
   -3.0671   -2.5859   -0.5858 H   0  0  0  0  0  0  0  0  0  0  0  0
   -1.2261   -2.1939    0.4202 C   0  0  0  0  0  0  0  0  0  0  0  0
   -0.3181   -2.9519    0.7312 O   0  0  0  0  0  0  0  0  0  0  0  0
   -1.0281   -0.9259    0.0662 N   0  0  0  0  0  0  0  0  0  0  0  0
   -1.8301   -0.3519   -0.1548 H   0  0  0  0  0  0  0  0  0  0  0  0
    0.2709   -0.2409    0.0912 C   0  0  1  0  0  0  0  0  0  0  0  0
    0.4006    0.2998   -0.8467 H   0  0  0  0  0  0  0  0  0  0  0  0
    0.3005    0.7809    1.2352 C   0  0  0  0  0  0  0  0  0  0  0  0
    1.2278    1.3536    1.1795 H   0  0  0  0  0  0  0  0  0  0  0  0
   -0.5432    1.4660    1.1344 H   0  0  0  0  0  0  0  0  0  0  0  0
    0.2404    0.1334    2.4923 O   0  0  0  0  0  0  0  0  0  0  0  0
    0.4359    0.7834    3.1759 H   0  0  0  0  0  0  0  0  0  0  0  0
    1.4163   -1.2592    0.2164 C   0  0  0  0  0  0  0  0  0  0  0  0
    1.2936   -2.3870   -0.2628 O   0  0  0  0  0  0  0  0  0  0  0  0
    2.5299   -0.8667    0.8446 N   0  0  0  0  0  0  0  0  0  0  0  0
    2.5034    0.0433    1.2852 H   0  0  0  0  0  0  0  0  0  0  0  0
    3.7166   -1.6990    1.0319 C   0  0  0  0  0  0  0  0  0  0  0  0
    3.9634   -2.2069    0.0972 H   0  0  0  0  0  0  0  0  0  0  0  0
    4.5625   -1.0841    1.3405 H   0  0  0  0  0  0  0  0  0  0  0  0
    3.5186   -2.4525    1.7971 H   0  0  0  0  0  0  0  0  0  0  0  0
  5  6  2  0  0  0  0
  5  7  1  0  0  0  0
  2  3  1  0  0  0  0
  2  4  1  0  0  0  0
  2  5  1  0  0  0  0
  1  2  1  0  0  0  0
 16 17  2  0  0  0  0
 16 18  1  0  0  0  0
 14 15  1  0  0  0  0
 11 12  1  0  0  0  0
 11 13  1  0  0  0  0
 11 14  1  0  0  0  0
  9 10  1  0  0  0  0
  9 11  1  0  0  0  0
  9 16  1  0  0  0  0
  7  8  1  0  0  0  0
  7  9  1  0  0  0  0
 20 21  1  0  0  0  0
 20 22  1  0  0  0  0
 20 23  1  0  0  0  0
 18 19  1  0  0  0  0
 18 20  1  0  0  0  0
M  END
$$$$
default_name
  -OEChem-01062215323D

 23 22  0     1  0  0  0  0  0999 V2000
   -2.6721   -3.7279    0.7212 H   0  0  0  0  0  0  0  0  0  0  0  0
   -2.6561   -2.6819    0.4162 C   0  0  0  0  0  0  0  0  0  0  0  0
   -3.2401   -2.0889    1.1172 H   0  0  0  0  0  0  0  0  0  0  0  0
   -3.0671   -2.5859   -0.5858 H   0  0  0  0  0  0  0  0  0  0  0  0
   -1.2261   -2.1939    0.4202 C   0  0  0  0  0  0  0  0  0  0  0  0
   -0.3181   -2.9519    0.7312 O   0  0  0  0  0  0  0  0  0  0  0  0
   -1.0281   -0.9259    0.0662 N   0  0  0  0  0  0  0  0  0  0  0  0
   -1.8301   -0.3519   -0.1548 H   0  0  0  0  0  0  0  0  0  0  0  0
    0.2709   -0.2409    0.0912 C   0  0  1  0  0  0  0  0  0  0  0  0
    0.4006    0.2998   -0.8467 H   0  0  0  0  0  0  0  0  0  0  0  0
    0.3005    0.7809    1.2352 C   0  0  0  0  0  0  0  0  0  0  0  0
    1.2278    1.3536    1.1795 H   0  0  0  0  0  0  0  0  0  0  0  0
   -0.5432    1.4660    1.1344 H   0  0  0  0  0  0  0  0  0  0  0  0
    0.2404    0.1334    2.4923 O   0  0  0  0  0  0  0  0  0  0  0  0
    0.4359    0.7834    3.1759 H   0  0  0  0  0  0  0  0  0  0  0  0
    1.4163   -1.2592    0.2164 C   0  0  0  0  0  0  0  0  0  0  0  0
    1.4193   -2.2727   -0.4832 O   0  0  0  0  0  0  0  0  0  0  0  0
    2.3918   -0.9917    1.0914 N   0  0  0  0  0  0  0  0  0  0  0  0
    2.2566   -0.1850    1.6863 H   0  0  0  0  0  0  0  0  0  0  0  0
    3.5603   -1.8395    1.3193 C   0  0  0  0  0  0  0  0  0  0  0  0
    3.9809   -2.1547    0.3620 H   0  0  0  0  0  0  0  0  0  0  0  0
    4.3178   -1.2927    1.8816 H   0  0  0  0  0  0  0  0  0  0  0  0
    3.2643   -2.7283    1.8804 H   0  0  0  0  0  0  0  0  0  0  0  0
  5  6  2  0  0  0  0
  5  7  1  0  0  0  0
  2  3  1  0  0  0  0
  2  4  1  0  0  0  0
  2  5  1  0  0  0  0
  1  2  1  0  0  0  0
 16 17  2  0  0  0  0
 16 18  1  0  0  0  0
 14 15  1  0  0  0  0
 11 12  1  0  0  0  0
 11 13  1  0  0  0  0
 11 14  1  0  0  0  0
  9 10  1  0  0  0  0
  9 11  1  0  0  0  0
  9 16  1  0  0  0  0
  7  8  1  0  0  0  0
  7  9  1  0  0  0  0
 20 21  1  0  0  0  0
 20 22  1  0  0  0  0
 20 23  1  0  0  0  0
 18 19  1  0  0  0  0
 18 20  1  0  0  0  0
M  END
$$$$
default_name
  -OEChem-01062215323D

 23 22  0     1  0  0  0  0  0999 V2000
   -2.6721   -3.7279    0.7212 H   0  0  0  0  0  0  0  0  0  0  0  0
   -2.6561   -2.6819    0.4162 C   0  0  0  0  0  0  0  0  0  0  0  0
   -3.2401   -2.0889    1.1172 H   0  0  0  0  0  0  0  0  0  0  0  0
   -3.0671   -2.5859   -0.5858 H   0  0  0  0  0  0  0  0  0  0  0  0
   -1.2261   -2.1939    0.4202 C   0  0  0  0  0  0  0  0  0  0  0  0
   -0.3181   -2.9519    0.7312 O   0  0  0  0  0  0  0  0  0  0  0  0
   -1.0281   -0.9259    0.0662 N   0  0  0  0  0  0  0  0  0  0  0  0
   -1.8301   -0.3519   -0.1548 H   0  0  0  0  0  0  0  0  0  0  0  0
    0.2709   -0.2409    0.0912 C   0  0  1  0  0  0  0  0  0  0  0  0
    0.4006    0.2998   -0.8467 H   0  0  0  0  0  0  0  0  0  0  0  0
    0.3005    0.7809    1.2352 C   0  0  0  0  0  0  0  0  0  0  0  0
    1.2278    1.3536    1.1795 H   0  0  0  0  0  0  0  0  0  0  0  0
   -0.5432    1.4660    1.1344 H   0  0  0  0  0  0  0  0  0  0  0  0
    0.2404    0.1334    2.4923 O   0  0  0  0  0  0  0  0  0  0  0  0
    0.4359    0.7834    3.1759 H   0  0  0  0  0  0  0  0  0  0  0  0
    1.4163   -1.2592    0.2164 C   0  0  0  0  0  0  0  0  0  0  0  0
    1.5762   -2.1171   -0.6526 O   0  0  0  0  0  0  0  0  0  0  0  0
    2.2187   -1.1629    1.2821 N   0  0  0  0  0  0  0  0  0  0  0  0
    1.9543   -0.4880    1.9874 H   0  0  0  0  0  0  0  0  0  0  0  0
    3.3631   -2.0339    1.5431 C   0  0  0  0  0  0  0  0  0  0  0  0
    3.9513   -2.1550    0.6309 H   0  0  0  0  0  0  0  0  0  0  0  0
    3.9932   -1.6038    2.3221 H   0  0  0  0  0  0  0  0  0  0  0  0
    3.0102   -3.0161    1.8641 H   0  0  0  0  0  0  0  0  0  0  0  0
  5  6  2  0  0  0  0
  5  7  1  0  0  0  0
  2  3  1  0  0  0  0
  2  4  1  0  0  0  0
  2  5  1  0  0  0  0
  1  2  1  0  0  0  0
 16 17  2  0  0  0  0
 16 18  1  0  0  0  0
 14 15  1  0  0  0  0
 11 12  1  0  0  0  0
 11 13  1  0  0  0  0
 11 14  1  0  0  0  0
  9 10  1  0  0  0  0
  9 11  1  0  0  0  0
  9 16  1  0  0  0  0
  7  8  1  0  0  0  0
  7  9  1  0  0  0  0
 20 21  1  0  0  0  0
 20 22  1  0  0  0  0
 20 23  1  0  0  0  0
 18 19  1  0  0  0  0
 18 20  1  0  0  0  0
M  END
$$$$
default_name
  -OEChem-01062215323D

 23 22  0     1  0  0  0  0  0999 V2000
   -2.6721   -3.7279    0.7212 H   0  0  0  0  0  0  0  0  0  0  0  0
   -2.6561   -2.6819    0.4162 C   0  0  0  0  0  0  0  0  0  0  0  0
   -3.2401   -2.0889    1.1172 H   0  0  0  0  0  0  0  0  0  0  0  0
   -3.0671   -2.5859   -0.5858 H   0  0  0  0  0  0  0  0  0  0  0  0
   -1.2261   -2.1939    0.4202 C   0  0  0  0  0  0  0  0  0  0  0  0
   -0.3181   -2.9519    0.7312 O   0  0  0  0  0  0  0  0  0  0  0  0
   -1.0281   -0.9259    0.0662 N   0  0  0  0  0  0  0  0  0  0  0  0
   -1.8301   -0.3519   -0.1548 H   0  0  0  0  0  0  0  0  0  0  0  0
    0.2709   -0.2409    0.0912 C   0  0  1  0  0  0  0  0  0  0  0  0
    0.4006    0.2998   -0.8467 H   0  0  0  0  0  0  0  0  0  0  0  0
    0.3005    0.7809    1.2352 C   0  0  0  0  0  0  0  0  0  0  0  0
    1.2278    1.3536    1.1795 H   0  0  0  0  0  0  0  0  0  0  0  0
   -0.5432    1.4660    1.1344 H   0  0  0  0  0  0  0  0  0  0  0  0
    0.2404    0.1334    2.4923 O   0  0  0  0  0  0  0  0  0  0  0  0
    0.4359    0.7834    3.1759 H   0  0  0  0  0  0  0  0  0  0  0  0
    1.4163   -1.2592    0.2164 C   0  0  0  0  0  0  0  0  0  0  0  0
    1.7534   -1.9309   -0.7593 O   0  0  0  0  0  0  0  0  0  0  0  0
    2.0225   -1.3688    1.4035 N   0  0  0  0  0  0  0  0  0  0  0  0
    1.6171   -0.8452    2.1680 H   0  0  0  0  0  0  0  0  0  0  0  0
    3.1383   -2.2690    1.6879 C   0  0  0  0  0  0  0  0  0  0  0  0
    3.8766   -2.2077    0.8855 H   0  0  0  0  0  0  0  0  0  0  0  0
    3.6106   -1.9960    2.6320 H   0  0  0  0  0  0  0  0  0  0  0  0
    2.7736   -3.2964    1.7493 H   0  0  0  0  0  0  0  0  0  0  0  0
  5  6  2  0  0  0  0
  5  7  1  0  0  0  0
  2  3  1  0  0  0  0
  2  4  1  0  0  0  0
  2  5  1  0  0  0  0
  1  2  1  0  0  0  0
 16 17  2  0  0  0  0
 16 18  1  0  0  0  0
 14 15  1  0  0  0  0
 11 12  1  0  0  0  0
 11 13  1  0  0  0  0
 11 14  1  0  0  0  0
  9 10  1  0  0  0  0
  9 11  1  0  0  0  0
  9 16  1  0  0  0  0
  7  8  1  0  0  0  0
  7  9  1  0  0  0  0
 20 21  1  0  0  0  0
 20 22  1  0  0  0  0
 20 23  1  0  0  0  0
 18 19  1  0  0  0  0
 18 20  1  0  0  0  0
M  END
$$$$
default_name
  -OEChem-01062215323D

 23 22  0     1  0  0  0  0  0999 V2000
   -2.6721   -3.7279    0.7212 H   0  0  0  0  0  0  0  0  0  0  0  0
   -2.6561   -2.6819    0.4162 C   0  0  0  0  0  0  0  0  0  0  0  0
   -3.2401   -2.0889    1.1172 H   0  0  0  0  0  0  0  0  0  0  0  0
   -3.0671   -2.5859   -0.5858 H   0  0  0  0  0  0  0  0  0  0  0  0
   -1.2261   -2.1939    0.4202 C   0  0  0  0  0  0  0  0  0  0  0  0
   -0.3181   -2.9519    0.7312 O   0  0  0  0  0  0  0  0  0  0  0  0
   -1.0281   -0.9259    0.0662 N   0  0  0  0  0  0  0  0  0  0  0  0
   -1.8301   -0.3519   -0.1548 H   0  0  0  0  0  0  0  0  0  0  0  0
    0.2709   -0.2409    0.0912 C   0  0  1  0  0  0  0  0  0  0  0  0
    0.4006    0.2998   -0.8467 H   0  0  0  0  0  0  0  0  0  0  0  0
    0.3005    0.7809    1.2352 C   0  0  0  0  0  0  0  0  0  0  0  0
    1.2278    1.3536    1.1795 H   0  0  0  0  0  0  0  0  0  0  0  0
   -0.5432    1.4660    1.1344 H   0  0  0  0  0  0  0  0  0  0  0  0
    0.2404    0.1334    2.4923 O   0  0  0  0  0  0  0  0  0  0  0  0
    0.4359    0.7834    3.1759 H   0  0  0  0  0  0  0  0  0  0  0  0
    1.4163   -1.2592    0.2164 C   0  0  0  0  0  0  0  0  0  0  0  0
    1.9389   -1.7267   -0.7960 O   0  0  0  0  0  0  0  0  0  0  0  0
    1.8164   -1.5951    1.4476 N   0  0  0  0  0  0  0  0  0  0  0  0
    1.2679   -1.2321    2.2158 H   0  0  0  0  0  0  0  0  0  0  0  0
    2.9013   -2.5287    1.7439 C   0  0  0  0  0  0  0  0  0  0  0  0
    3.7619   -2.3092    1.1085 H   0  0  0  0  0  0  0  0  0  0  0  0
    3.1962   -2.4427    2.7901 H   0  0  0  0  0  0  0  0  0  0  0  0
    2.5707   -3.5500    1.5438 H   0  0  0  0  0  0  0  0  0  0  0  0
  5  6  2  0  0  0  0
  5  7  1  0  0  0  0
  2  3  1  0  0  0  0
  2  4  1  0  0  0  0
  2  5  1  0  0  0  0
  1  2  1  0  0  0  0
 16 17  2  0  0  0  0
 16 18  1  0  0  0  0
 14 15  1  0  0  0  0
 11 12  1  0  0  0  0
 11 13  1  0  0  0  0
 11 14  1  0  0  0  0
  9 10  1  0  0  0  0
  9 11  1  0  0  0  0
  9 16  1  0  0  0  0
  7  8  1  0  0  0  0
  7  9  1  0  0  0  0
 20 21  1  0  0  0  0
 20 22  1  0  0  0  0
 20 23  1  0  0  0  0
 18 19  1  0  0  0  0
 18 20  1  0  0  0  0
M  END
$$$$
default_name
  -OEChem-01062215323D

 23 22  0     1  0  0  0  0  0999 V2000
   -2.6721   -3.7279    0.7212 H   0  0  0  0  0  0  0  0  0  0  0  0
   -2.6561   -2.6819    0.4162 C   0  0  0  0  0  0  0  0  0  0  0  0
   -3.2401   -2.0889    1.1172 H   0  0  0  0  0  0  0  0  0  0  0  0
   -3.0671   -2.5859   -0.5858 H   0  0  0  0  0  0  0  0  0  0  0  0
   -1.2261   -2.1939    0.4202 C   0  0  0  0  0  0  0  0  0  0  0  0
   -0.3181   -2.9519    0.7312 O   0  0  0  0  0  0  0  0  0  0  0  0
   -1.0281   -0.9259    0.0662 N   0  0  0  0  0  0  0  0  0  0  0  0
   -1.8301   -0.3519   -0.1548 H   0  0  0  0  0  0  0  0  0  0  0  0
    0.2709   -0.2409    0.0912 C   0  0  1  0  0  0  0  0  0  0  0  0
    0.4006    0.2998   -0.8467 H   0  0  0  0  0  0  0  0  0  0  0  0
    0.3005    0.7809    1.2352 C   0  0  0  0  0  0  0  0  0  0  0  0
    1.2278    1.3536    1.1795 H   0  0  0  0  0  0  0  0  0  0  0  0
   -0.5432    1.4660    1.1344 H   0  0  0  0  0  0  0  0  0  0  0  0
    0.2404    0.1334    2.4923 O   0  0  0  0  0  0  0  0  0  0  0  0
    0.4359    0.7834    3.1759 H   0  0  0  0  0  0  0  0  0  0  0  0
    1.4163   -1.2592    0.2164 C   0  0  0  0  0  0  0  0  0  0  0  0
    2.1201   -1.5185   -0.7604 O   0  0  0  0  0  0  0  0  0  0  0  0
    1.6146   -1.8266    1.4111 N   0  0  0  0  0  0  0  0  0  0  0  0
    0.9306   -1.6224    2.1275 H   0  0  0  0  0  0  0  0  0  0  0  0
    2.6682   -2.7953    1.7074 C   0  0  0  0  0  0  0  0  0  0  0  0
    3.6151   -2.4527    1.2846 H   0  0  0  0  0  0  0  0  0  0  0  0
    2.7783   -2.9134    2.7857 H   0  0  0  0  0  0  0  0  0  0  0  0
    2.4152   -3.7595    1.2616 H   0  0  0  0  0  0  0  0  0  0  0  0
  5  6  2  0  0  0  0
  5  7  1  0  0  0  0
  2  3  1  0  0  0  0
  2  4  1  0  0  0  0
  2  5  1  0  0  0  0
  1  2  1  0  0  0  0
 16 17  2  0  0  0  0
 16 18  1  0  0  0  0
 14 15  1  0  0  0  0
 11 12  1  0  0  0  0
 11 13  1  0  0  0  0
 11 14  1  0  0  0  0
  9 10  1  0  0  0  0
  9 11  1  0  0  0  0
  9 16  1  0  0  0  0
  7  8  1  0  0  0  0
  7  9  1  0  0  0  0
 20 21  1  0  0  0  0
 20 22  1  0  0  0  0
 20 23  1  0  0  0  0
 18 19  1  0  0  0  0
 18 20  1  0  0  0  0
M  END
$$$$
default_name
  -OEChem-01062215323D

 23 22  0     1  0  0  0  0  0999 V2000
   -2.6721   -3.7279    0.7212 H   0  0  0  0  0  0  0  0  0  0  0  0
   -2.6561   -2.6819    0.4162 C   0  0  0  0  0  0  0  0  0  0  0  0
   -3.2401   -2.0889    1.1172 H   0  0  0  0  0  0  0  0  0  0  0  0
   -3.0671   -2.5859   -0.5858 H   0  0  0  0  0  0  0  0  0  0  0  0
   -1.2261   -2.1939    0.4202 C   0  0  0  0  0  0  0  0  0  0  0  0
   -0.3181   -2.9519    0.7312 O   0  0  0  0  0  0  0  0  0  0  0  0
   -1.0281   -0.9259    0.0662 N   0  0  0  0  0  0  0  0  0  0  0  0
   -1.8301   -0.3519   -0.1548 H   0  0  0  0  0  0  0  0  0  0  0  0
    0.2709   -0.2409    0.0912 C   0  0  1  0  0  0  0  0  0  0  0  0
    0.4006    0.2998   -0.8467 H   0  0  0  0  0  0  0  0  0  0  0  0
    0.3005    0.7809    1.2352 C   0  0  0  0  0  0  0  0  0  0  0  0
    1.2278    1.3536    1.1795 H   0  0  0  0  0  0  0  0  0  0  0  0
   -0.5432    1.4660    1.1344 H   0  0  0  0  0  0  0  0  0  0  0  0
    0.2404    0.1334    2.4923 O   0  0  0  0  0  0  0  0  0  0  0  0
    0.4359    0.7834    3.1759 H   0  0  0  0  0  0  0  0  0  0  0  0
    1.4163   -1.2592    0.2164 C   0  0  0  0  0  0  0  0  0  0  0  0
    2.2847   -1.3204   -0.6548 O   0  0  0  0  0  0  0  0  0  0  0  0
    1.4308   -2.0474    1.2967 N   0  0  0  0  0  0  0  0  0  0  0  0
    0.6281   -1.9895    1.9092 H   0  0  0  0  0  0  0  0  0  0  0  0
    2.4550   -3.0508    1.5807 C   0  0  0  0  0  0  0  0  0  0  0  0
    3.4461   -2.6284    1.4020 H   0  0  0  0  0  0  0  0  0  0  0  0
    2.3853   -3.3759    2.6191 H   0  0  0  0  0  0  0  0  0  0  0  0
    2.3178   -3.9109    0.9221 H   0  0  0  0  0  0  0  0  0  0  0  0
  5  6  2  0  0  0  0
  5  7  1  0  0  0  0
  2  3  1  0  0  0  0
  2  4  1  0  0  0  0
  2  5  1  0  0  0  0
  1  2  1  0  0  0  0
 16 17  2  0  0  0  0
 16 18  1  0  0  0  0
 14 15  1  0  0  0  0
 11 12  1  0  0  0  0
 11 13  1  0  0  0  0
 11 14  1  0  0  0  0
  9 10  1  0  0  0  0
  9 11  1  0  0  0  0
  9 16  1  0  0  0  0
  7  8  1  0  0  0  0
  7  9  1  0  0  0  0
 20 21  1  0  0  0  0
 20 22  1  0  0  0  0
 20 23  1  0  0  0  0
 18 19  1  0  0  0  0
 18 20  1  0  0  0  0
M  END
$$$$
default_name
  -OEChem-01062215323D

 23 22  0     1  0  0  0  0  0999 V2000
   -2.6721   -3.7279    0.7212 H   0  0  0  0  0  0  0  0  0  0  0  0
   -2.6561   -2.6819    0.4162 C   0  0  0  0  0  0  0  0  0  0  0  0
   -3.2401   -2.0889    1.1172 H   0  0  0  0  0  0  0  0  0  0  0  0
   -3.0671   -2.5859   -0.5858 H   0  0  0  0  0  0  0  0  0  0  0  0
   -1.2261   -2.1939    0.4202 C   0  0  0  0  0  0  0  0  0  0  0  0
   -0.3181   -2.9519    0.7312 O   0  0  0  0  0  0  0  0  0  0  0  0
   -1.0281   -0.9259    0.0662 N   0  0  0  0  0  0  0  0  0  0  0  0
   -1.8301   -0.3519   -0.1548 H   0  0  0  0  0  0  0  0  0  0  0  0
    0.2709   -0.2409    0.0912 C   0  0  1  0  0  0  0  0  0  0  0  0
    0.4006    0.2998   -0.8467 H   0  0  0  0  0  0  0  0  0  0  0  0
    0.3005    0.7809    1.2352 C   0  0  0  0  0  0  0  0  0  0  0  0
    1.2278    1.3536    1.1795 H   0  0  0  0  0  0  0  0  0  0  0  0
   -0.5432    1.4660    1.1344 H   0  0  0  0  0  0  0  0  0  0  0  0
    0.2404    0.1334    2.4923 O   0  0  0  0  0  0  0  0  0  0  0  0
    0.4359    0.7834    3.1759 H   0  0  0  0  0  0  0  0  0  0  0  0
    1.4163   -1.2592    0.2164 C   0  0  0  0  0  0  0  0  0  0  0  0
    2.4213   -1.1459   -0.4864 O   0  0  0  0  0  0  0  0  0  0  0  0
    1.2776   -2.2425    1.1122 N   0  0  0  0  0  0  0  0  0  0  0  0
    0.3811   -2.3083    1.5758 H   0  0  0  0  0  0  0  0  0  0  0  0
    2.2761   -3.2776    1.3726 C   0  0  0  0  0  0  0  0  0  0  0  0
    3.2664   -2.8243    1.4524 H   0  0  0  0  0  0  0  0  0  0  0  0
    2.0440   -3.7989    2.3017 H   0  0  0  0  0  0  0  0  0  0  0  0
    2.2851   -3.9936    0.5482 H   0  0  0  0  0  0  0  0  0  0  0  0
  5  6  2  0  0  0  0
  5  7  1  0  0  0  0
  2  3  1  0  0  0  0
  2  4  1  0  0  0  0
  2  5  1  0  0  0  0
  1  2  1  0  0  0  0
 16 17  2  0  0  0  0
 16 18  1  0  0  0  0
 14 15  1  0  0  0  0
 11 12  1  0  0  0  0
 11 13  1  0  0  0  0
 11 14  1  0  0  0  0
  9 10  1  0  0  0  0
  9 11  1  0  0  0  0
  9 16  1  0  0  0  0
  7  8  1  0  0  0  0
  7  9  1  0  0  0  0
 20 21  1  0  0  0  0
 20 22  1  0  0  0  0
 20 23  1  0  0  0  0
 18 19  1  0  0  0  0
 18 20  1  0  0  0  0
M  END
$$$$
default_name
  -OEChem-01062215323D

 23 22  0     1  0  0  0  0  0999 V2000
   -2.6721   -3.7279    0.7212 H   0  0  0  0  0  0  0  0  0  0  0  0
   -2.6561   -2.6819    0.4162 C   0  0  0  0  0  0  0  0  0  0  0  0
   -3.2401   -2.0889    1.1172 H   0  0  0  0  0  0  0  0  0  0  0  0
   -3.0671   -2.5859   -0.5858 H   0  0  0  0  0  0  0  0  0  0  0  0
   -1.2261   -2.1939    0.4202 C   0  0  0  0  0  0  0  0  0  0  0  0
   -0.3181   -2.9519    0.7312 O   0  0  0  0  0  0  0  0  0  0  0  0
   -1.0281   -0.9259    0.0662 N   0  0  0  0  0  0  0  0  0  0  0  0
   -1.8301   -0.3519   -0.1548 H   0  0  0  0  0  0  0  0  0  0  0  0
    0.2709   -0.2409    0.0912 C   0  0  1  0  0  0  0  0  0  0  0  0
    0.4006    0.2998   -0.8467 H   0  0  0  0  0  0  0  0  0  0  0  0
    0.3005    0.7809    1.2352 C   0  0  0  0  0  0  0  0  0  0  0  0
    1.2278    1.3536    1.1795 H   0  0  0  0  0  0  0  0  0  0  0  0
   -0.5432    1.4660    1.1344 H   0  0  0  0  0  0  0  0  0  0  0  0
    0.2404    0.1334    2.4923 O   0  0  0  0  0  0  0  0  0  0  0  0
    0.4359    0.7834    3.1759 H   0  0  0  0  0  0  0  0  0  0  0  0
    1.4163   -1.2592    0.2164 C   0  0  0  0  0  0  0  0  0  0  0  0
    2.5208   -1.0070   -0.2666 O   0  0  0  0  0  0  0  0  0  0  0  0
    1.1653   -2.3986    0.8700 N   0  0  0  0  0  0  0  0  0  0  0  0
    0.2064   -2.5572    1.1499 H   0  0  0  0  0  0  0  0  0  0  0  0
    2.1438   -3.4603    1.0971 C   0  0  0  0  0  0  0  0  0  0  0  0
    3.0884   -3.0270    1.4326 H   0  0  0  0  0  0  0  0  0  0  0  0
    1.7776   -4.1535    1.8550 H   0  0  0  0  0  0  0  0  0  0  0  0
    2.3194   -4.0021    0.1655 H   0  0  0  0  0  0  0  0  0  0  0  0
  5  6  2  0  0  0  0
  5  7  1  0  0  0  0
  2  3  1  0  0  0  0
  2  4  1  0  0  0  0
  2  5  1  0  0  0  0
  1  2  1  0  0  0  0
 16 17  2  0  0  0  0
 16 18  1  0  0  0  0
 14 15  1  0  0  0  0
 11 12  1  0  0  0  0
 11 13  1  0  0  0  0
 11 14  1  0  0  0  0
  9 10  1  0  0  0  0
  9 11  1  0  0  0  0
  9 16  1  0  0  0  0
  7  8  1  0  0  0  0
  7  9  1  0  0  0  0
 20 21  1  0  0  0  0
 20 22  1  0  0  0  0
 20 23  1  0  0  0  0
 18 19  1  0  0  0  0
 18 20  1  0  0  0  0
M  END
$$$$
default_name
  -OEChem-01062215323D

 23 22  0     1  0  0  0  0  0999 V2000
   -2.6721   -3.7279    0.7212 H   0  0  0  0  0  0  0  0  0  0  0  0
   -2.6561   -2.6819    0.4162 C   0  0  0  0  0  0  0  0  0  0  0  0
   -3.2401   -2.0889    1.1172 H   0  0  0  0  0  0  0  0  0  0  0  0
   -3.0671   -2.5859   -0.5858 H   0  0  0  0  0  0  0  0  0  0  0  0
   -1.2261   -2.1939    0.4202 C   0  0  0  0  0  0  0  0  0  0  0  0
   -0.3181   -2.9519    0.7312 O   0  0  0  0  0  0  0  0  0  0  0  0
   -1.0281   -0.9259    0.0662 N   0  0  0  0  0  0  0  0  0  0  0  0
   -1.8301   -0.3519   -0.1548 H   0  0  0  0  0  0  0  0  0  0  0  0
    0.2709   -0.2409    0.0912 C   0  0  1  0  0  0  0  0  0  0  0  0
    0.4006    0.2998   -0.8467 H   0  0  0  0  0  0  0  0  0  0  0  0
    0.3005    0.7809    1.2352 C   0  0  0  0  0  0  0  0  0  0  0  0
    1.2278    1.3536    1.1795 H   0  0  0  0  0  0  0  0  0  0  0  0
   -0.5432    1.4660    1.1344 H   0  0  0  0  0  0  0  0  0  0  0  0
    0.2404    0.1334    2.4923 O   0  0  0  0  0  0  0  0  0  0  0  0
    0.4359    0.7834    3.1759 H   0  0  0  0  0  0  0  0  0  0  0  0
    1.4163   -1.2592    0.2164 C   0  0  0  0  0  0  0  0  0  0  0  0
    2.5763   -0.9131   -0.0105 O   0  0  0  0  0  0  0  0  0  0  0  0
    1.1016   -2.5051    0.5867 N   0  0  0  0  0  0  0  0  0  0  0  0
    0.1159   -2.7193    0.6605 H   0  0  0  0  0  0  0  0  0  0  0  0
    2.0670   -3.5865    0.7732 C   0  0  0  0  0  0  0  0  0  0  0  0
    2.9241   -3.2227    1.3439 H   0  0  0  0  0  0  0  0  0  0  0  0
    1.6044   -4.4155    1.3095 H   0  0  0  0  0  0  0  0  0  0  0  0
    2.4182   -3.9359   -0.1999 H   0  0  0  0  0  0  0  0  0  0  0  0
  5  6  2  0  0  0  0
  5  7  1  0  0  0  0
  2  3  1  0  0  0  0
  2  4  1  0  0  0  0
  2  5  1  0  0  0  0
  1  2  1  0  0  0  0
 16 17  2  0  0  0  0
 16 18  1  0  0  0  0
 14 15  1  0  0  0  0
 11 12  1  0  0  0  0
 11 13  1  0  0  0  0
 11 14  1  0  0  0  0
  9 10  1  0  0  0  0
  9 11  1  0  0  0  0
  9 16  1  0  0  0  0
  7  8  1  0  0  0  0
  7  9  1  0  0  0  0
 20 21  1  0  0  0  0
 20 22  1  0  0  0  0
 20 23  1  0  0  0  0
 18 19  1  0  0  0  0
 18 20  1  0  0  0  0
M  END
$$$$
default_name
  -OEChem-01062215323D

 23 22  0     1  0  0  0  0  0999 V2000
   -2.6721   -3.7279    0.7212 H   0  0  0  0  0  0  0  0  0  0  0  0
   -2.6561   -2.6819    0.4162 C   0  0  0  0  0  0  0  0  0  0  0  0
   -3.2401   -2.0889    1.1172 H   0  0  0  0  0  0  0  0  0  0  0  0
   -3.0671   -2.5859   -0.5858 H   0  0  0  0  0  0  0  0  0  0  0  0
   -1.2261   -2.1939    0.4202 C   0  0  0  0  0  0  0  0  0  0  0  0
   -0.3181   -2.9519    0.7312 O   0  0  0  0  0  0  0  0  0  0  0  0
   -1.0281   -0.9259    0.0662 N   0  0  0  0  0  0  0  0  0  0  0  0
   -1.8301   -0.3519   -0.1548 H   0  0  0  0  0  0  0  0  0  0  0  0
    0.2709   -0.2409    0.0912 C   0  0  1  0  0  0  0  0  0  0  0  0
    0.4006    0.2998   -0.8467 H   0  0  0  0  0  0  0  0  0  0  0  0
    0.3005    0.7809    1.2352 C   0  0  0  0  0  0  0  0  0  0  0  0
    1.2278    1.3536    1.1795 H   0  0  0  0  0  0  0  0  0  0  0  0
   -0.5432    1.4660    1.1344 H   0  0  0  0  0  0  0  0  0  0  0  0
    0.2404    0.1334    2.4923 O   0  0  0  0  0  0  0  0  0  0  0  0
    0.4359    0.7834    3.1759 H   0  0  0  0  0  0  0  0  0  0  0  0
    1.4163   -1.2592    0.2164 C   0  0  0  0  0  0  0  0  0  0  0  0
    2.5840   -0.8706    0.2644 O   0  0  0  0  0  0  0  0  0  0  0  0
    1.0909   -2.5547    0.2817 N   0  0  0  0  0  0  0  0  0  0  0  0
    0.1158   -2.7833    0.1411 H   0  0  0  0  0  0  0  0  0  0  0  0
    2.0511   -3.6476    0.4228 C   0  0  0  0  0  0  0  0  0  0  0  0
    2.7847   -3.3981    1.1923 H   0  0  0  0  0  0  0  0  0  0  0  0
    1.5360   -4.5671    0.7024 H   0  0  0  0  0  0  0  0  0  0  0  0
    2.5750   -3.7993   -0.5232 H   0  0  0  0  0  0  0  0  0  0  0  0
  5  6  2  0  0  0  0
  5  7  1  0  0  0  0
  2  3  1  0  0  0  0
  2  4  1  0  0  0  0
  2  5  1  0  0  0  0
  1  2  1  0  0  0  0
 16 17  2  0  0  0  0
 16 18  1  0  0  0  0
 14 15  1  0  0  0  0
 11 12  1  0  0  0  0
 11 13  1  0  0  0  0
 11 14  1  0  0  0  0
  9 10  1  0  0  0  0
  9 11  1  0  0  0  0
  9 16  1  0  0  0  0
  7  8  1  0  0  0  0
  7  9  1  0  0  0  0
 20 21  1  0  0  0  0
 20 22  1  0  0  0  0
 20 23  1  0  0  0  0
 18 19  1  0  0  0  0
 18 20  1  0  0  0  0
M  END
$$$$
default_name
  -OEChem-01062215323D

 23 22  0     1  0  0  0  0  0999 V2000
   -2.6721   -3.7279    0.7212 H   0  0  0  0  0  0  0  0  0  0  0  0
   -2.6561   -2.6819    0.4162 C   0  0  0  0  0  0  0  0  0  0  0  0
   -3.2401   -2.0889    1.1172 H   0  0  0  0  0  0  0  0  0  0  0  0
   -3.0671   -2.5859   -0.5858 H   0  0  0  0  0  0  0  0  0  0  0  0
   -1.2261   -2.1939    0.4202 C   0  0  0  0  0  0  0  0  0  0  0  0
   -0.3181   -2.9519    0.7312 O   0  0  0  0  0  0  0  0  0  0  0  0
   -1.0281   -0.9259    0.0662 N   0  0  0  0  0  0  0  0  0  0  0  0
   -1.8301   -0.3519   -0.1548 H   0  0  0  0  0  0  0  0  0  0  0  0
    0.2709   -0.2409    0.0912 C   0  0  1  0  0  0  0  0  0  0  0  0
    0.4006    0.2998   -0.8467 H   0  0  0  0  0  0  0  0  0  0  0  0
    0.3005    0.7809    1.2352 C   0  0  0  0  0  0  0  0  0  0  0  0
    1.2278    1.3536    1.1795 H   0  0  0  0  0  0  0  0  0  0  0  0
   -0.5432    1.4660    1.1344 H   0  0  0  0  0  0  0  0  0  0  0  0
    0.2404    0.1334    2.4923 O   0  0  0  0  0  0  0  0  0  0  0  0
    0.4359    0.7834    3.1759 H   0  0  0  0  0  0  0  0  0  0  0  0
    1.4163   -1.2592    0.2164 C   0  0  0  0  0  0  0  0  0  0  0  0
    2.5435   -0.8824    0.5395 O   0  0  0  0  0  0  0  0  0  0  0  0
    1.1338   -2.5440   -0.0244 N   0  0  0  0  0  0  0  0  0  0  0  0
    0.2060   -2.7451   -0.3730 H   0  0  0  0  0  0  0  0  0  0  0  0
    2.0970   -3.6393    0.0698 C   0  0  0  0  0  0  0  0  0  0  0  0
    2.6798   -3.5413    0.9882 H   0  0  0  0  0  0  0  0  0  0  0  0
    1.5773   -4.5978    0.0750 H   0  0  0  0  0  0  0  0  0  0  0  0
    2.7789   -3.6018   -0.7822 H   0  0  0  0  0  0  0  0  0  0  0  0
  5  6  2  0  0  0  0
  5  7  1  0  0  0  0
  2  3  1  0  0  0  0
  2  4  1  0  0  0  0
  2  5  1  0  0  0  0
  1  2  1  0  0  0  0
 16 17  2  0  0  0  0
 16 18  1  0  0  0  0
 14 15  1  0  0  0  0
 11 12  1  0  0  0  0
 11 13  1  0  0  0  0
 11 14  1  0  0  0  0
  9 10  1  0  0  0  0
  9 11  1  0  0  0  0
  9 16  1  0  0  0  0
  7  8  1  0  0  0  0
  7  9  1  0  0  0  0
 20 21  1  0  0  0  0
 20 22  1  0  0  0  0
 20 23  1  0  0  0  0
 18 19  1  0  0  0  0
 18 20  1  0  0  0  0
M  END
$$$$
default_name
  -OEChem-01062215323D

 23 22  0     1  0  0  0  0  0999 V2000
   -2.6721   -3.7279    0.7212 H   0  0  0  0  0  0  0  0  0  0  0  0
   -2.6561   -2.6819    0.4162 C   0  0  0  0  0  0  0  0  0  0  0  0
   -3.2401   -2.0889    1.1172 H   0  0  0  0  0  0  0  0  0  0  0  0
   -3.0671   -2.5859   -0.5858 H   0  0  0  0  0  0  0  0  0  0  0  0
   -1.2261   -2.1939    0.4202 C   0  0  0  0  0  0  0  0  0  0  0  0
   -0.3181   -2.9519    0.7312 O   0  0  0  0  0  0  0  0  0  0  0  0
   -1.0281   -0.9259    0.0662 N   0  0  0  0  0  0  0  0  0  0  0  0
   -1.8301   -0.3519   -0.1548 H   0  0  0  0  0  0  0  0  0  0  0  0
    0.2709   -0.2409    0.0912 C   0  0  1  0  0  0  0  0  0  0  0  0
    0.4006    0.2998   -0.8467 H   0  0  0  0  0  0  0  0  0  0  0  0
    0.3005    0.7809    1.2352 C   0  0  0  0  0  0  0  0  0  0  0  0
    1.2278    1.3536    1.1795 H   0  0  0  0  0  0  0  0  0  0  0  0
   -0.5432    1.4660    1.1344 H   0  0  0  0  0  0  0  0  0  0  0  0
    0.2404    0.1334    2.4923 O   0  0  0  0  0  0  0  0  0  0  0  0
    0.4359    0.7834    3.1759 H   0  0  0  0  0  0  0  0  0  0  0  0
    1.4163   -1.2592    0.2164 C   0  0  0  0  0  0  0  0  0  0  0  0
    2.4574   -0.9476    0.7961 O   0  0  0  0  0  0  0  0  0  0  0  0
    1.2276   -2.4737   -0.3106 N   0  0  0  0  0  0  0  0  0  0  0  0
    0.3804   -2.6071   -0.8467 H   0  0  0  0  0  0  0  0  0  0  0  0
    2.2017   -3.5623   -0.2616 C   0  0  0  0  0  0  0  0  0  0  0  0
    2.6164   -3.6425    0.7454 H   0  0  0  0  0  0  0  0  0  0  0  0
    1.7253   -4.5058   -0.5298 H   0  0  0  0  0  0  0  0  0  0  0  0
    3.0161   -3.3568   -0.9594 H   0  0  0  0  0  0  0  0  0  0  0  0
  5  6  2  0  0  0  0
  5  7  1  0  0  0  0
  2  3  1  0  0  0  0
  2  4  1  0  0  0  0
  2  5  1  0  0  0  0
  1  2  1  0  0  0  0
 16 17  2  0  0  0  0
 16 18  1  0  0  0  0
 14 15  1  0  0  0  0
 11 12  1  0  0  0  0
 11 13  1  0  0  0  0
 11 14  1  0  0  0  0
  9 10  1  0  0  0  0
  9 11  1  0  0  0  0
  9 16  1  0  0  0  0
  7  8  1  0  0  0  0
  7  9  1  0  0  0  0
 20 21  1  0  0  0  0
 20 22  1  0  0  0  0
 20 23  1  0  0  0  0
 18 19  1  0  0  0  0
 18 20  1  0  0  0  0
M  END
$$$$
default_name
  -OEChem-01062215323D

 23 22  0     1  0  0  0  0  0999 V2000
   -2.6721   -3.7279    0.7212 H   0  0  0  0  0  0  0  0  0  0  0  0
   -2.6561   -2.6819    0.4162 C   0  0  0  0  0  0  0  0  0  0  0  0
   -3.2401   -2.0889    1.1172 H   0  0  0  0  0  0  0  0  0  0  0  0
   -3.0671   -2.5859   -0.5858 H   0  0  0  0  0  0  0  0  0  0  0  0
   -1.2261   -2.1939    0.4202 C   0  0  0  0  0  0  0  0  0  0  0  0
   -0.3181   -2.9519    0.7312 O   0  0  0  0  0  0  0  0  0  0  0  0
   -1.0281   -0.9259    0.0662 N   0  0  0  0  0  0  0  0  0  0  0  0
   -1.8301   -0.3519   -0.1548 H   0  0  0  0  0  0  0  0  0  0  0  0
    0.2709   -0.2409    0.0912 C   0  0  1  0  0  0  0  0  0  0  0  0
    0.4006    0.2998   -0.8467 H   0  0  0  0  0  0  0  0  0  0  0  0
    0.3005    0.7809    1.2352 C   0  0  0  0  0  0  0  0  0  0  0  0
    1.2278    1.3536    1.1795 H   0  0  0  0  0  0  0  0  0  0  0  0
   -0.5432    1.4660    1.1344 H   0  0  0  0  0  0  0  0  0  0  0  0
    0.2404    0.1334    2.4923 O   0  0  0  0  0  0  0  0  0  0  0  0
    0.4359    0.7834    3.1759 H   0  0  0  0  0  0  0  0  0  0  0  0
    1.4163   -1.2592    0.2164 C   0  0  0  0  0  0  0  0  0  0  0  0
    2.3316   -1.0620    1.0165 O   0  0  0  0  0  0  0  0  0  0  0  0
    1.3657   -2.3487   -0.5574 N   0  0  0  0  0  0  0  0  0  0  0  0
    0.6272   -2.3788   -1.2478 H   0  0  0  0  0  0  0  0  0  0  0  0
    2.3580   -3.4219   -0.5490 C   0  0  0  0  0  0  0  0  0  0  0  0
    2.5989   -3.6947    0.4806 H   0  0  0  0  0  0  0  0  0  0  0  0
    1.9699   -4.2971   -1.0709 H   0  0  0  0  0  0  0  0  0  0  0  0
    3.2704   -3.0810   -1.0427 H   0  0  0  0  0  0  0  0  0  0  0  0
  5  6  2  0  0  0  0
  5  7  1  0  0  0  0
  2  3  1  0  0  0  0
  2  4  1  0  0  0  0
  2  5  1  0  0  0  0
  1  2  1  0  0  0  0
 16 17  2  0  0  0  0
 16 18  1  0  0  0  0
 14 15  1  0  0  0  0
 11 12  1  0  0  0  0
 11 13  1  0  0  0  0
 11 14  1  0  0  0  0
  9 10  1  0  0  0  0
  9 11  1  0  0  0  0
  9 16  1  0  0  0  0
  7  8  1  0  0  0  0
  7  9  1  0  0  0  0
 20 21  1  0  0  0  0
 20 22  1  0  0  0  0
 20 23  1  0  0  0  0
 18 19  1  0  0  0  0
 18 20  1  0  0  0  0
M  END
$$$$
default_name
  -OEChem-01062215323D

 23 22  0     1  0  0  0  0  0999 V2000
   -2.6721   -3.7279    0.7212 H   0  0  0  0  0  0  0  0  0  0  0  0
   -2.6561   -2.6819    0.4162 C   0  0  0  0  0  0  0  0  0  0  0  0
   -3.2401   -2.0889    1.1172 H   0  0  0  0  0  0  0  0  0  0  0  0
   -3.0671   -2.5859   -0.5858 H   0  0  0  0  0  0  0  0  0  0  0  0
   -1.2261   -2.1939    0.4202 C   0  0  0  0  0  0  0  0  0  0  0  0
   -0.3181   -2.9519    0.7312 O   0  0  0  0  0  0  0  0  0  0  0  0
   -1.0281   -0.9259    0.0662 N   0  0  0  0  0  0  0  0  0  0  0  0
   -1.8301   -0.3519   -0.1548 H   0  0  0  0  0  0  0  0  0  0  0  0
    0.2709   -0.2409    0.0912 C   0  0  1  0  0  0  0  0  0  0  0  0
    0.4006    0.2998   -0.8467 H   0  0  0  0  0  0  0  0  0  0  0  0
    0.3005    0.7809    1.2352 C   0  0  0  0  0  0  0  0  0  0  0  0
    1.2278    1.3536    1.1795 H   0  0  0  0  0  0  0  0  0  0  0  0
   -0.5432    1.4660    1.1344 H   0  0  0  0  0  0  0  0  0  0  0  0
    0.2404    0.1334    2.4923 O   0  0  0  0  0  0  0  0  0  0  0  0
    0.4359    0.7834    3.1759 H   0  0  0  0  0  0  0  0  0  0  0  0
    1.4163   -1.2592    0.2164 C   0  0  0  0  0  0  0  0  0  0  0  0
    2.1748   -1.2175    1.1858 O   0  0  0  0  0  0  0  0  0  0  0  0
    1.5388   -2.1775   -0.7481 N   0  0  0  0  0  0  0  0  0  0  0  0
    0.9296   -2.0758   -1.5489 H   0  0  0  0  0  0  0  0  0  0  0  0
    2.5552   -3.2275   -0.7728 C   0  0  0  0  0  0  0  0  0  0  0  0
    2.6285   -3.6945    0.2117 H   0  0  0  0  0  0  0  0  0  0  0  0
    2.2946   -3.9860   -1.5114 H   0  0  0  0  0  0  0  0  0  0  0  0
    3.5245   -2.7931   -1.0264 H   0  0  0  0  0  0  0  0  0  0  0  0
  5  6  2  0  0  0  0
  5  7  1  0  0  0  0
  2  3  1  0  0  0  0
  2  4  1  0  0  0  0
  2  5  1  0  0  0  0
  1  2  1  0  0  0  0
 16 17  2  0  0  0  0
 16 18  1  0  0  0  0
 14 15  1  0  0  0  0
 11 12  1  0  0  0  0
 11 13  1  0  0  0  0
 11 14  1  0  0  0  0
  9 10  1  0  0  0  0
  9 11  1  0  0  0  0
  9 16  1  0  0  0  0
  7  8  1  0  0  0  0
  7  9  1  0  0  0  0
 20 21  1  0  0  0  0
 20 22  1  0  0  0  0
 20 23  1  0  0  0  0
 18 19  1  0  0  0  0
 18 20  1  0  0  0  0
M  END
$$$$
default_name
  -OEChem-01062215323D

 23 22  0     1  0  0  0  0  0999 V2000
   -2.6721   -3.7279    0.7212 H   0  0  0  0  0  0  0  0  0  0  0  0
   -2.6561   -2.6819    0.4162 C   0  0  0  0  0  0  0  0  0  0  0  0
   -3.2401   -2.0889    1.1172 H   0  0  0  0  0  0  0  0  0  0  0  0
   -3.0671   -2.5859   -0.5858 H   0  0  0  0  0  0  0  0  0  0  0  0
   -1.2261   -2.1939    0.4202 C   0  0  0  0  0  0  0  0  0  0  0  0
   -0.3181   -2.9519    0.7312 O   0  0  0  0  0  0  0  0  0  0  0  0
   -1.0281   -0.9259    0.0662 N   0  0  0  0  0  0  0  0  0  0  0  0
   -1.8301   -0.3519   -0.1548 H   0  0  0  0  0  0  0  0  0  0  0  0
    0.2709   -0.2409    0.0912 C   0  0  1  0  0  0  0  0  0  0  0  0
    0.4006    0.2998   -0.8467 H   0  0  0  0  0  0  0  0  0  0  0  0
    0.3005    0.7809    1.2352 C   0  0  0  0  0  0  0  0  0  0  0  0
    1.2278    1.3536    1.1795 H   0  0  0  0  0  0  0  0  0  0  0  0
   -0.5432    1.4660    1.1344 H   0  0  0  0  0  0  0  0  0  0  0  0
    0.2404    0.1334    2.4923 O   0  0  0  0  0  0  0  0  0  0  0  0
    0.4359    0.7834    3.1759 H   0  0  0  0  0  0  0  0  0  0  0  0
    1.4163   -1.2592    0.2164 C   0  0  0  0  0  0  0  0  0  0  0  0
    1.9976   -1.4038    1.2925 O   0  0  0  0  0  0  0  0  0  0  0  0
    1.7350   -1.9717   -0.8695 N   0  0  0  0  0  0  0  0  0  0  0  0
    1.2668   -1.7186   -1.7295 H   0  0  0  0  0  0  0  0  0  0  0  0
    2.7800   -2.9924   -0.9176 C   0  0  0  0  0  0  0  0  0  0  0  0
    2.7032   -3.6418   -0.0429 H   0  0  0  0  0  0  0  0  0  0  0  0
    2.6772   -3.5938   -1.8213 H   0  0  0  0  0  0  0  0  0  0  0  0
    3.7611   -2.5129   -0.9116 H   0  0  0  0  0  0  0  0  0  0  0  0
  5  6  2  0  0  0  0
  5  7  1  0  0  0  0
  2  3  1  0  0  0  0
  2  4  1  0  0  0  0
  2  5  1  0  0  0  0
  1  2  1  0  0  0  0
 16 17  2  0  0  0  0
 16 18  1  0  0  0  0
 14 15  1  0  0  0  0
 11 12  1  0  0  0  0
 11 13  1  0  0  0  0
 11 14  1  0  0  0  0
  9 10  1  0  0  0  0
  9 11  1  0  0  0  0
  9 16  1  0  0  0  0
  7  8  1  0  0  0  0
  7  9  1  0  0  0  0
 20 21  1  0  0  0  0
 20 22  1  0  0  0  0
 20 23  1  0  0  0  0
 18 19  1  0  0  0  0
 18 20  1  0  0  0  0
M  END
$$$$
default_name
  -OEChem-01062215323D

 23 22  0     1  0  0  0  0  0999 V2000
   -2.6721   -3.7279    0.7212 H   0  0  0  0  0  0  0  0  0  0  0  0
   -2.6561   -2.6819    0.4162 C   0  0  0  0  0  0  0  0  0  0  0  0
   -3.2401   -2.0889    1.1172 H   0  0  0  0  0  0  0  0  0  0  0  0
   -3.0671   -2.5859   -0.5858 H   0  0  0  0  0  0  0  0  0  0  0  0
   -1.2261   -2.1939    0.4202 C   0  0  0  0  0  0  0  0  0  0  0  0
   -0.3181   -2.9519    0.7312 O   0  0  0  0  0  0  0  0  0  0  0  0
   -1.0281   -0.9259    0.0662 N   0  0  0  0  0  0  0  0  0  0  0  0
   -1.8301   -0.3519   -0.1548 H   0  0  0  0  0  0  0  0  0  0  0  0
    0.2709   -0.2409    0.0912 C   0  0  1  0  0  0  0  0  0  0  0  0
    0.4006    0.2998   -0.8467 H   0  0  0  0  0  0  0  0  0  0  0  0
    0.3005    0.7809    1.2352 C   0  0  0  0  0  0  0  0  0  0  0  0
    1.2278    1.3536    1.1795 H   0  0  0  0  0  0  0  0  0  0  0  0
   -0.5432    1.4660    1.1344 H   0  0  0  0  0  0  0  0  0  0  0  0
    0.2404    0.1334    2.4923 O   0  0  0  0  0  0  0  0  0  0  0  0
    0.4359    0.7834    3.1759 H   0  0  0  0  0  0  0  0  0  0  0  0
    1.4163   -1.2592    0.2164 C   0  0  0  0  0  0  0  0  0  0  0  0
    1.8120   -1.6080    1.3293 O   0  0  0  0  0  0  0  0  0  0  0  0
    1.9411   -1.7453   -0.9136 N   0  0  0  0  0  0  0  0  0  0  0  0
    1.6160   -1.3317   -1.7773 H   0  0  0  0  0  0  0  0  0  0  0  0
    3.0170   -2.7327   -0.9737 C   0  0  0  0  0  0  0  0  0  0  0  0
    2.8179   -3.5402   -0.2659 H   0  0  0  0  0  0  0  0  0  0  0  0
    3.0916   -3.1471   -1.9794 H   0  0  0  0  0  0  0  0  0  0  0  0
    3.9640   -2.2593   -0.7061 H   0  0  0  0  0  0  0  0  0  0  0  0
  5  6  2  0  0  0  0
  5  7  1  0  0  0  0
  2  3  1  0  0  0  0
  2  4  1  0  0  0  0
  2  5  1  0  0  0  0
  1  2  1  0  0  0  0
 16 17  2  0  0  0  0
 16 18  1  0  0  0  0
 14 15  1  0  0  0  0
 11 12  1  0  0  0  0
 11 13  1  0  0  0  0
 11 14  1  0  0  0  0
  9 10  1  0  0  0  0
  9 11  1  0  0  0  0
  9 16  1  0  0  0  0
  7  8  1  0  0  0  0
  7  9  1  0  0  0  0
 20 21  1  0  0  0  0
 20 22  1  0  0  0  0
 20 23  1  0  0  0  0
 18 19  1  0  0  0  0
 18 20  1  0  0  0  0
M  END
$$$$
default_name
  -OEChem-01062215323D

 23 22  0     1  0  0  0  0  0999 V2000
   -2.6721   -3.7279    0.7212 H   0  0  0  0  0  0  0  0  0  0  0  0
   -2.6561   -2.6819    0.4162 C   0  0  0  0  0  0  0  0  0  0  0  0
   -3.2401   -2.0889    1.1172 H   0  0  0  0  0  0  0  0  0  0  0  0
   -3.0671   -2.5859   -0.5858 H   0  0  0  0  0  0  0  0  0  0  0  0
   -1.2261   -2.1939    0.4202 C   0  0  0  0  0  0  0  0  0  0  0  0
   -0.3181   -2.9519    0.7312 O   0  0  0  0  0  0  0  0  0  0  0  0
   -1.0281   -0.9259    0.0662 N   0  0  0  0  0  0  0  0  0  0  0  0
   -1.8301   -0.3519   -0.1548 H   0  0  0  0  0  0  0  0  0  0  0  0
    0.2709   -0.2409    0.0912 C   0  0  1  0  0  0  0  0  0  0  0  0
    0.4006    0.2998   -0.8467 H   0  0  0  0  0  0  0  0  0  0  0  0
    0.3005    0.7809    1.2352 C   0  0  0  0  0  0  0  0  0  0  0  0
    1.2278    1.3536    1.1795 H   0  0  0  0  0  0  0  0  0  0  0  0
   -0.5432    1.4660    1.1344 H   0  0  0  0  0  0  0  0  0  0  0  0
    0.2404    0.1334    2.4923 O   0  0  0  0  0  0  0  0  0  0  0  0
    0.4359    0.7834    3.1759 H   0  0  0  0  0  0  0  0  0  0  0  0
    1.4163   -1.2592    0.2164 C   0  0  0  0  0  0  0  0  0  0  0  0
    1.6308   -1.8162    1.2937 O   0  0  0  0  0  0  0  0  0  0  0  0
    2.1429   -1.5139   -0.8771 N   0  0  0  0  0  0  0  0  0  0  0  0
    1.9533   -0.9414   -1.6891 H   0  0  0  0  0  0  0  0  0  0  0  0
    3.2501   -2.4660   -0.9371 C   0  0  0  0  0  0  0  0  0  0  0  0
    2.9647   -3.3967   -0.4420 H   0  0  0  0  0  0  0  0  0  0  0  0
    3.5095   -2.6765   -1.9751 H   0  0  0  0  0  0  0  0  0  0  0  0
    4.1195   -2.0497   -0.4240 H   0  0  0  0  0  0  0  0  0  0  0  0
  5  6  2  0  0  0  0
  5  7  1  0  0  0  0
  2  3  1  0  0  0  0
  2  4  1  0  0  0  0
  2  5  1  0  0  0  0
  1  2  1  0  0  0  0
 16 17  2  0  0  0  0
 16 18  1  0  0  0  0
 14 15  1  0  0  0  0
 11 12  1  0  0  0  0
 11 13  1  0  0  0  0
 11 14  1  0  0  0  0
  9 10  1  0  0  0  0
  9 11  1  0  0  0  0
  9 16  1  0  0  0  0
  7  8  1  0  0  0  0
  7  9  1  0  0  0  0
 20 21  1  0  0  0  0
 20 22  1  0  0  0  0
 20 23  1  0  0  0  0
 18 19  1  0  0  0  0
 18 20  1  0  0  0  0
M  END
$$$$
default_name
  -OEChem-01062215323D

 23 22  0     1  0  0  0  0  0999 V2000
   -2.6721   -3.7279    0.7212 H   0  0  0  0  0  0  0  0  0  0  0  0
   -2.6561   -2.6819    0.4162 C   0  0  0  0  0  0  0  0  0  0  0  0
   -3.2401   -2.0889    1.1172 H   0  0  0  0  0  0  0  0  0  0  0  0
   -3.0671   -2.5859   -0.5858 H   0  0  0  0  0  0  0  0  0  0  0  0
   -1.2261   -2.1939    0.4202 C   0  0  0  0  0  0  0  0  0  0  0  0
   -0.3181   -2.9519    0.7312 O   0  0  0  0  0  0  0  0  0  0  0  0
   -1.0281   -0.9259    0.0662 N   0  0  0  0  0  0  0  0  0  0  0  0
   -1.8301   -0.3519   -0.1548 H   0  0  0  0  0  0  0  0  0  0  0  0
    0.2709   -0.2409    0.0912 C   0  0  1  0  0  0  0  0  0  0  0  0
    0.4006    0.2998   -0.8467 H   0  0  0  0  0  0  0  0  0  0  0  0
    0.3005    0.7809    1.2352 C   0  0  0  0  0  0  0  0  0  0  0  0
    1.2278    1.3536    1.1795 H   0  0  0  0  0  0  0  0  0  0  0  0
   -0.5432    1.4660    1.1344 H   0  0  0  0  0  0  0  0  0  0  0  0
    0.2404    0.1334    2.4923 O   0  0  0  0  0  0  0  0  0  0  0  0
    0.4359    0.7834    3.1759 H   0  0  0  0  0  0  0  0  0  0  0  0
    1.4163   -1.2592    0.2164 C   0  0  0  0  0  0  0  0  0  0  0  0
    1.4663   -2.0143    1.1881 O   0  0  0  0  0  0  0  0  0  0  0  0
    2.3267   -1.2930   -0.7627 N   0  0  0  0  0  0  0  0  0  0  0  0
    2.2557   -0.5744   -1.4708 H   0  0  0  0  0  0  0  0  0  0  0  0
    3.4633   -2.2106   -0.8104 C   0  0  0  0  0  0  0  0  0  0  0  0
    3.1337   -3.2210   -0.5593 H   0  0  0  0  0  0  0  0  0  0  0  0
    3.9025   -2.2139   -1.8085 H   0  0  0  0  0  0  0  0  0  0  0  0
    4.2169   -1.8984   -0.0844 H   0  0  0  0  0  0  0  0  0  0  0  0
  5  6  2  0  0  0  0
  5  7  1  0  0  0  0
  2  3  1  0  0  0  0
  2  4  1  0  0  0  0
  2  5  1  0  0  0  0
  1  2  1  0  0  0  0
 16 17  2  0  0  0  0
 16 18  1  0  0  0  0
 14 15  1  0  0  0  0
 11 12  1  0  0  0  0
 11 13  1  0  0  0  0
 11 14  1  0  0  0  0
  9 10  1  0  0  0  0
  9 11  1  0  0  0  0
  9 16  1  0  0  0  0
  7  8  1  0  0  0  0
  7  9  1  0  0  0  0
 20 21  1  0  0  0  0
 20 22  1  0  0  0  0
 20 23  1  0  0  0  0
 18 19  1  0  0  0  0
 18 20  1  0  0  0  0
M  END
$$$$
default_name
  -OEChem-01062215323D

 23 22  0     1  0  0  0  0  0999 V2000
   -2.6721   -3.7279    0.7212 H   0  0  0  0  0  0  0  0  0  0  0  0
   -2.6561   -2.6819    0.4162 C   0  0  0  0  0  0  0  0  0  0  0  0
   -3.2401   -2.0889    1.1172 H   0  0  0  0  0  0  0  0  0  0  0  0
   -3.0671   -2.5859   -0.5858 H   0  0  0  0  0  0  0  0  0  0  0  0
   -1.2261   -2.1939    0.4202 C   0  0  0  0  0  0  0  0  0  0  0  0
   -0.3181   -2.9519    0.7312 O   0  0  0  0  0  0  0  0  0  0  0  0
   -1.0281   -0.9259    0.0662 N   0  0  0  0  0  0  0  0  0  0  0  0
   -1.8301   -0.3519   -0.1548 H   0  0  0  0  0  0  0  0  0  0  0  0
    0.2709   -0.2409    0.0912 C   0  0  1  0  0  0  0  0  0  0  0  0
    0.4006    0.2998   -0.8467 H   0  0  0  0  0  0  0  0  0  0  0  0
    0.3005    0.7809    1.2352 C   0  0  0  0  0  0  0  0  0  0  0  0
    1.2278    1.3536    1.1795 H   0  0  0  0  0  0  0  0  0  0  0  0
   -0.5432    1.4660    1.1344 H   0  0  0  0  0  0  0  0  0  0  0  0
    0.2404    0.1334    2.4923 O   0  0  0  0  0  0  0  0  0  0  0  0
    0.4359    0.7834    3.1759 H   0  0  0  0  0  0  0  0  0  0  0  0
    1.4163   -1.2592    0.2164 C   0  0  0  0  0  0  0  0  0  0  0  0
    1.3296   -2.1887    1.0196 O   0  0  0  0  0  0  0  0  0  0  0  0
    2.4799   -1.0979   -0.5782 N   0  0  0  0  0  0  0  0  0  0  0  0
    2.5027   -0.2555   -1.1373 H   0  0  0  0  0  0  0  0  0  0  0  0
    3.6422   -1.9838   -0.6023 C   0  0  0  0  0  0  0  0  0  0  0  0
    3.3134   -3.0251   -0.6098 H   0  0  0  0  0  0  0  0  0  0  0  0
    4.2438   -1.7909   -1.4910 H   0  0  0  0  0  0  0  0  0  0  0  0
    4.2495   -1.8157    0.2895 H   0  0  0  0  0  0  0  0  0  0  0  0
  5  6  2  0  0  0  0
  5  7  1  0  0  0  0
  2  3  1  0  0  0  0
  2  4  1  0  0  0  0
  2  5  1  0  0  0  0
  1  2  1  0  0  0  0
 16 17  2  0  0  0  0
 16 18  1  0  0  0  0
 14 15  1  0  0  0  0
 11 12  1  0  0  0  0
 11 13  1  0  0  0  0
 11 14  1  0  0  0  0
  9 10  1  0  0  0  0
  9 11  1  0  0  0  0
  9 16  1  0  0  0  0
  7  8  1  0  0  0  0
  7  9  1  0  0  0  0
 20 21  1  0  0  0  0
 20 22  1  0  0  0  0
 20 23  1  0  0  0  0
 18 19  1  0  0  0  0
 18 20  1  0  0  0  0
M  END
$$$$
default_name
  -OEChem-01062215323D

 23 22  0     1  0  0  0  0  0999 V2000
   -2.6721   -3.7279    0.7212 H   0  0  0  0  0  0  0  0  0  0  0  0
   -2.6561   -2.6819    0.4162 C   0  0  0  0  0  0  0  0  0  0  0  0
   -3.2401   -2.0889    1.1172 H   0  0  0  0  0  0  0  0  0  0  0  0
   -3.0671   -2.5859   -0.5858 H   0  0  0  0  0  0  0  0  0  0  0  0
   -1.2261   -2.1939    0.4202 C   0  0  0  0  0  0  0  0  0  0  0  0
   -0.3181   -2.9519    0.7312 O   0  0  0  0  0  0  0  0  0  0  0  0
   -1.0281   -0.9259    0.0662 N   0  0  0  0  0  0  0  0  0  0  0  0
   -1.8301   -0.3519   -0.1548 H   0  0  0  0  0  0  0  0  0  0  0  0
    0.2709   -0.2409    0.0912 C   0  0  1  0  0  0  0  0  0  0  0  0
    0.4006    0.2998   -0.8467 H   0  0  0  0  0  0  0  0  0  0  0  0
    0.3005    0.7809    1.2352 C   0  0  0  0  0  0  0  0  0  0  0  0
    1.2278    1.3536    1.1795 H   0  0  0  0  0  0  0  0  0  0  0  0
   -0.5432    1.4660    1.1344 H   0  0  0  0  0  0  0  0  0  0  0  0
    0.2404    0.1334    2.4923 O   0  0  0  0  0  0  0  0  0  0  0  0
    0.4359    0.7834    3.1759 H   0  0  0  0  0  0  0  0  0  0  0  0
    1.4163   -1.2592    0.2164 C   0  0  0  0  0  0  0  0  0  0  0  0
    1.2302   -2.3276    0.7999 O   0  0  0  0  0  0  0  0  0  0  0  0
    2.5922   -0.9418   -0.3360 N   0  0  0  0  0  0  0  0  0  0  0  0
    2.6774   -0.0066   -0.7114 H   0  0  0  0  0  0  0  0  0  0  0  0
    3.7745   -1.8010   -0.3269 C   0  0  0  0  0  0  0  0  0  0  0  0
    3.4914   -2.8224   -0.5900 H   0  0  0  0  0  0  0  0  0  0  0  0
    4.5102   -1.4363   -1.0443 H   0  0  0  0  0  0  0  0  0  0  0  0
    4.2153   -1.8071    0.6722 H   0  0  0  0  0  0  0  0  0  0  0  0
  5  6  2  0  0  0  0
  5  7  1  0  0  0  0
  2  3  1  0  0  0  0
  2  4  1  0  0  0  0
  2  5  1  0  0  0  0
  1  2  1  0  0  0  0
 16 17  2  0  0  0  0
 16 18  1  0  0  0  0
 14 15  1  0  0  0  0
 11 12  1  0  0  0  0
 11 13  1  0  0  0  0
 11 14  1  0  0  0  0
  9 10  1  0  0  0  0
  9 11  1  0  0  0  0
  9 16  1  0  0  0  0
  7  8  1  0  0  0  0
  7  9  1  0  0  0  0
 20 21  1  0  0  0  0
 20 22  1  0  0  0  0
 20 23  1  0  0  0  0
 18 19  1  0  0  0  0
 18 20  1  0  0  0  0
M  END
$$$$
default_name
  -OEChem-01062215323D

 23 22  0     1  0  0  0  0  0999 V2000
   -2.6721   -3.7279    0.7212 H   0  0  0  0  0  0  0  0  0  0  0  0
   -2.6561   -2.6819    0.4162 C   0  0  0  0  0  0  0  0  0  0  0  0
   -3.2401   -2.0889    1.1172 H   0  0  0  0  0  0  0  0  0  0  0  0
   -3.0671   -2.5859   -0.5858 H   0  0  0  0  0  0  0  0  0  0  0  0
   -1.2261   -2.1939    0.4202 C   0  0  0  0  0  0  0  0  0  0  0  0
   -0.3181   -2.9519    0.7312 O   0  0  0  0  0  0  0  0  0  0  0  0
   -1.0281   -0.9259    0.0662 N   0  0  0  0  0  0  0  0  0  0  0  0
   -1.8301   -0.3519   -0.1548 H   0  0  0  0  0  0  0  0  0  0  0  0
    0.2709   -0.2409    0.0912 C   0  0  1  0  0  0  0  0  0  0  0  0
    0.4006    0.2998   -0.8467 H   0  0  0  0  0  0  0  0  0  0  0  0
    0.3005    0.7809    1.2352 C   0  0  0  0  0  0  0  0  0  0  0  0
    1.2278    1.3536    1.1795 H   0  0  0  0  0  0  0  0  0  0  0  0
   -0.5432    1.4660    1.1344 H   0  0  0  0  0  0  0  0  0  0  0  0
    0.2404    0.1334    2.4923 O   0  0  0  0  0  0  0  0  0  0  0  0
    0.4359    0.7834    3.1759 H   0  0  0  0  0  0  0  0  0  0  0  0
    1.4163   -1.2592    0.2164 C   0  0  0  0  0  0  0  0  0  0  0  0
    1.1747   -2.4216    0.5438 O   0  0  0  0  0  0  0  0  0  0  0  0
    2.6559   -0.8353   -0.0527 N   0  0  0  0  0  0  0  0  0  0  0  0
    2.7679    0.1554   -0.2221 H   0  0  0  0  0  0  0  0  0  0  0  0
    3.8513   -1.6749   -0.0029 C   0  0  0  0  0  0  0  0  0  0  0  0
    3.6557   -2.6267   -0.5013 H   0  0  0  0  0  0  0  0  0  0  0  0
    4.6834   -1.1743   -0.4988 H   0  0  0  0  0  0  0  0  0  0  0  0
    4.1164   -1.8734    1.0376 H   0  0  0  0  0  0  0  0  0  0  0  0
  5  6  2  0  0  0  0
  5  7  1  0  0  0  0
  2  3  1  0  0  0  0
  2  4  1  0  0  0  0
  2  5  1  0  0  0  0
  1  2  1  0  0  0  0
 16 17  2  0  0  0  0
 16 18  1  0  0  0  0
 14 15  1  0  0  0  0
 11 12  1  0  0  0  0
 11 13  1  0  0  0  0
 11 14  1  0  0  0  0
  9 10  1  0  0  0  0
  9 11  1  0  0  0  0
  9 16  1  0  0  0  0
  7  8  1  0  0  0  0
  7  9  1  0  0  0  0
 20 21  1  0  0  0  0
 20 22  1  0  0  0  0
 20 23  1  0  0  0  0
 18 19  1  0  0  0  0
 18 20  1  0  0  0  0
M  END
$$$$
default_name
  -OEChem-01062215323D

 23 22  0     1  0  0  0  0  0999 V2000
   -2.6721   -3.7279    0.7212 H   0  0  0  0  0  0  0  0  0  0  0  0
   -2.6561   -2.6819    0.4162 C   0  0  0  0  0  0  0  0  0  0  0  0
   -3.2401   -2.0889    1.1172 H   0  0  0  0  0  0  0  0  0  0  0  0
   -3.0671   -2.5859   -0.5858 H   0  0  0  0  0  0  0  0  0  0  0  0
   -1.2261   -2.1939    0.4202 C   0  0  0  0  0  0  0  0  0  0  0  0
   -0.3181   -2.9519    0.7312 O   0  0  0  0  0  0  0  0  0  0  0  0
   -1.0281   -0.9259    0.0662 N   0  0  0  0  0  0  0  0  0  0  0  0
   -1.8301   -0.3519   -0.1548 H   0  0  0  0  0  0  0  0  0  0  0  0
    0.2709   -0.2409    0.0912 C   0  0  1  0  0  0  0  0  0  0  0  0
    0.2912    0.5022   -0.7064 H   0  0  0  0  0  0  0  0  0  0  0  0
    0.4489    0.4926    1.4269 C   0  0  0  0  0  0  0  0  0  0  0  0
    1.3680    1.0799    1.3928 H   0  0  0  0  0  0  0  0  0  0  0  0
   -0.3942    1.1669    1.5879 H   0  0  0  0  0  0  0  0  0  0  0  0
    0.5353   -0.4261    2.5000 O   0  0  0  0  0  0  0  0  0  0  0  0
    0.8185    0.0538    3.2857 H   0  0  0  0  0  0  0  0  0  0  0  0
    1.4132   -1.2395   -0.1589 C   0  0  0  0  0  0  0  0  0  0  0  0
    1.1604   -2.4289   -0.3544 O   0  0  0  0  0  0  0  0  0  0  0  0
    2.6631   -0.7638   -0.1660 N   0  0  0  0  0  0  0  0  0  0  0  0
    2.7790    0.2062    0.0957 H   0  0  0  0  0  0  0  0  0  0  0  0
    3.8584   -1.5694   -0.4082 C   0  0  0  0  0  0  0  0  0  0  0  0
    3.6942   -2.2265   -1.2649 H   0  0  0  0  0  0  0  0  0  0  0  0
    4.7130   -0.9231   -0.6100 H   0  0  0  0  0  0  0  0  0  0  0  0
    4.0692   -2.1850    0.4688 H   0  0  0  0  0  0  0  0  0  0  0  0
  5  6  2  0  0  0  0
  5  7  1  0  0  0  0
  2  3  1  0  0  0  0
  2  4  1  0  0  0  0
  2  5  1  0  0  0  0
  1  2  1  0  0  0  0
 16 17  2  0  0  0  0
 16 18  1  0  0  0  0
 14 15  1  0  0  0  0
 11 12  1  0  0  0  0
 11 13  1  0  0  0  0
 11 14  1  0  0  0  0
  9 10  1  0  0  0  0
  9 11  1  0  0  0  0
  9 16  1  0  0  0  0
  7  8  1  0  0  0  0
  7  9  1  0  0  0  0
 20 21  1  0  0  0  0
 20 22  1  0  0  0  0
 20 23  1  0  0  0  0
 18 19  1  0  0  0  0
 18 20  1  0  0  0  0
M  END
$$$$
default_name
  -OEChem-01062215323D

 23 22  0     1  0  0  0  0  0999 V2000
   -2.6721   -3.7279    0.7212 H   0  0  0  0  0  0  0  0  0  0  0  0
   -2.6561   -2.6819    0.4162 C   0  0  0  0  0  0  0  0  0  0  0  0
   -3.2401   -2.0889    1.1172 H   0  0  0  0  0  0  0  0  0  0  0  0
   -3.0671   -2.5859   -0.5858 H   0  0  0  0  0  0  0  0  0  0  0  0
   -1.2261   -2.1939    0.4202 C   0  0  0  0  0  0  0  0  0  0  0  0
   -0.3181   -2.9519    0.7312 O   0  0  0  0  0  0  0  0  0  0  0  0
   -1.0281   -0.9259    0.0662 N   0  0  0  0  0  0  0  0  0  0  0  0
   -1.8301   -0.3519   -0.1548 H   0  0  0  0  0  0  0  0  0  0  0  0
    0.2709   -0.2409    0.0912 C   0  0  1  0  0  0  0  0  0  0  0  0
    0.2912    0.5022   -0.7064 H   0  0  0  0  0  0  0  0  0  0  0  0
    0.4489    0.4926    1.4269 C   0  0  0  0  0  0  0  0  0  0  0  0
    1.3680    1.0799    1.3928 H   0  0  0  0  0  0  0  0  0  0  0  0
   -0.3942    1.1669    1.5879 H   0  0  0  0  0  0  0  0  0  0  0  0
    0.5353   -0.4261    2.5000 O   0  0  0  0  0  0  0  0  0  0  0  0
    0.8185    0.0538    3.2857 H   0  0  0  0  0  0  0  0  0  0  0  0
    1.4132   -1.2395   -0.1589 C   0  0  0  0  0  0  0  0  0  0  0  0
    1.1674   -2.3538   -0.6223 O   0  0  0  0  0  0  0  0  0  0  0  0
    2.6574   -0.8450    0.1323 N   0  0  0  0  0  0  0  0  0  0  0  0
    2.7514    0.0497    0.5943 H   0  0  0  0  0  0  0  0  0  0  0  0
    3.8555   -1.6590   -0.0636 C   0  0  0  0  0  0  0  0  0  0  0  0
    3.8245   -2.1318   -1.0475 H   0  0  0  0  0  0  0  0  0  0  0  0
    4.7485   -1.0373    0.0080 H   0  0  0  0  0  0  0  0  0  0  0  0
    3.8963   -2.4402    0.6983 H   0  0  0  0  0  0  0  0  0  0  0  0
  5  6  2  0  0  0  0
  5  7  1  0  0  0  0
  2  3  1  0  0  0  0
  2  4  1  0  0  0  0
  2  5  1  0  0  0  0
  1  2  1  0  0  0  0
 16 17  2  0  0  0  0
 16 18  1  0  0  0  0
 14 15  1  0  0  0  0
 11 12  1  0  0  0  0
 11 13  1  0  0  0  0
 11 14  1  0  0  0  0
  9 10  1  0  0  0  0
  9 11  1  0  0  0  0
  9 16  1  0  0  0  0
  7  8  1  0  0  0  0
  7  9  1  0  0  0  0
 20 21  1  0  0  0  0
 20 22  1  0  0  0  0
 20 23  1  0  0  0  0
 18 19  1  0  0  0  0
 18 20  1  0  0  0  0
M  END
$$$$
default_name
  -OEChem-01062215323D

 23 22  0     1  0  0  0  0  0999 V2000
   -2.6721   -3.7279    0.7212 H   0  0  0  0  0  0  0  0  0  0  0  0
   -2.6561   -2.6819    0.4162 C   0  0  0  0  0  0  0  0  0  0  0  0
   -3.2401   -2.0889    1.1172 H   0  0  0  0  0  0  0  0  0  0  0  0
   -3.0671   -2.5859   -0.5858 H   0  0  0  0  0  0  0  0  0  0  0  0
   -1.2261   -2.1939    0.4202 C   0  0  0  0  0  0  0  0  0  0  0  0
   -0.3181   -2.9519    0.7312 O   0  0  0  0  0  0  0  0  0  0  0  0
   -1.0281   -0.9259    0.0662 N   0  0  0  0  0  0  0  0  0  0  0  0
   -1.8301   -0.3519   -0.1548 H   0  0  0  0  0  0  0  0  0  0  0  0
    0.2709   -0.2409    0.0912 C   0  0  1  0  0  0  0  0  0  0  0  0
    0.2912    0.5022   -0.7064 H   0  0  0  0  0  0  0  0  0  0  0  0
    0.4489    0.4926    1.4269 C   0  0  0  0  0  0  0  0  0  0  0  0
    1.3680    1.0799    1.3928 H   0  0  0  0  0  0  0  0  0  0  0  0
   -0.3942    1.1669    1.5879 H   0  0  0  0  0  0  0  0  0  0  0  0
    0.5353   -0.4261    2.5000 O   0  0  0  0  0  0  0  0  0  0  0  0
    0.8185    0.0538    3.2857 H   0  0  0  0  0  0  0  0  0  0  0  0
    1.4132   -1.2395   -0.1589 C   0  0  0  0  0  0  0  0  0  0  0  0
    1.2224   -2.2300   -0.8655 O   0  0  0  0  0  0  0  0  0  0  0  0
    2.5984   -0.9806    0.4040 N   0  0  0  0  0  0  0  0  0  0  0  0
    2.6343   -0.1961    1.0413 H   0  0  0  0  0  0  0  0  0  0  0  0
    3.7910   -1.8116    0.2515 C   0  0  0  0  0  0  0  0  0  0  0  0
    3.9178   -2.0877   -0.7974 H   0  0  0  0  0  0  0  0  0  0  0  0
    4.6740   -1.2680    0.5889 H   0  0  0  0  0  0  0  0  0  0  0  0
    3.6799   -2.7236    0.8418 H   0  0  0  0  0  0  0  0  0  0  0  0
  5  6  2  0  0  0  0
  5  7  1  0  0  0  0
  2  3  1  0  0  0  0
  2  4  1  0  0  0  0
  2  5  1  0  0  0  0
  1  2  1  0  0  0  0
 16 17  2  0  0  0  0
 16 18  1  0  0  0  0
 14 15  1  0  0  0  0
 11 12  1  0  0  0  0
 11 13  1  0  0  0  0
 11 14  1  0  0  0  0
  9 10  1  0  0  0  0
  9 11  1  0  0  0  0
  9 16  1  0  0  0  0
  7  8  1  0  0  0  0
  7  9  1  0  0  0  0
 20 21  1  0  0  0  0
 20 22  1  0  0  0  0
 20 23  1  0  0  0  0
 18 19  1  0  0  0  0
 18 20  1  0  0  0  0
M  END
$$$$
default_name
  -OEChem-01062215323D

 23 22  0     1  0  0  0  0  0999 V2000
   -2.6721   -3.7279    0.7212 H   0  0  0  0  0  0  0  0  0  0  0  0
   -2.6561   -2.6819    0.4162 C   0  0  0  0  0  0  0  0  0  0  0  0
   -3.2401   -2.0889    1.1172 H   0  0  0  0  0  0  0  0  0  0  0  0
   -3.0671   -2.5859   -0.5858 H   0  0  0  0  0  0  0  0  0  0  0  0
   -1.2261   -2.1939    0.4202 C   0  0  0  0  0  0  0  0  0  0  0  0
   -0.3181   -2.9519    0.7312 O   0  0  0  0  0  0  0  0  0  0  0  0
   -1.0281   -0.9259    0.0662 N   0  0  0  0  0  0  0  0  0  0  0  0
   -1.8301   -0.3519   -0.1548 H   0  0  0  0  0  0  0  0  0  0  0  0
    0.2709   -0.2409    0.0912 C   0  0  1  0  0  0  0  0  0  0  0  0
    0.2912    0.5022   -0.7064 H   0  0  0  0  0  0  0  0  0  0  0  0
    0.4489    0.4926    1.4269 C   0  0  0  0  0  0  0  0  0  0  0  0
    1.3680    1.0799    1.3928 H   0  0  0  0  0  0  0  0  0  0  0  0
   -0.3942    1.1669    1.5879 H   0  0  0  0  0  0  0  0  0  0  0  0
    0.5353   -0.4261    2.5000 O   0  0  0  0  0  0  0  0  0  0  0  0
    0.8185    0.0538    3.2857 H   0  0  0  0  0  0  0  0  0  0  0  0
    1.4132   -1.2395   -0.1589 C   0  0  0  0  0  0  0  0  0  0  0  0
    1.3216   -2.0660   -1.0673 O   0  0  0  0  0  0  0  0  0  0  0  0
    2.4900   -1.1612    0.6303 N   0  0  0  0  0  0  0  0  0  0  0  0
    2.4358   -0.5145    1.4060 H   0  0  0  0  0  0  0  0  0  0  0  0
    3.6694   -2.0170    0.5157 C   0  0  0  0  0  0  0  0  0  0  0  0
    3.9677   -2.0971   -0.5317 H   0  0  0  0  0  0  0  0  0  0  0  0
    4.4947   -1.5993    1.0931 H   0  0  0  0  0  0  0  0  0  0  0  0
    3.4350   -3.0158    0.8896 H   0  0  0  0  0  0  0  0  0  0  0  0
  5  6  2  0  0  0  0
  5  7  1  0  0  0  0
  2  3  1  0  0  0  0
  2  4  1  0  0  0  0
  2  5  1  0  0  0  0
  1  2  1  0  0  0  0
 16 17  2  0  0  0  0
 16 18  1  0  0  0  0
 14 15  1  0  0  0  0
 11 12  1  0  0  0  0
 11 13  1  0  0  0  0
 11 14  1  0  0  0  0
  9 10  1  0  0  0  0
  9 11  1  0  0  0  0
  9 16  1  0  0  0  0
  7  8  1  0  0  0  0
  7  9  1  0  0  0  0
 20 21  1  0  0  0  0
 20 22  1  0  0  0  0
 20 23  1  0  0  0  0
 18 19  1  0  0  0  0
 18 20  1  0  0  0  0
M  END
$$$$
default_name
  -OEChem-01062215323D

 23 22  0     1  0  0  0  0  0999 V2000
   -2.6721   -3.7279    0.7212 H   0  0  0  0  0  0  0  0  0  0  0  0
   -2.6561   -2.6819    0.4162 C   0  0  0  0  0  0  0  0  0  0  0  0
   -3.2401   -2.0889    1.1172 H   0  0  0  0  0  0  0  0  0  0  0  0
   -3.0671   -2.5859   -0.5858 H   0  0  0  0  0  0  0  0  0  0  0  0
   -1.2261   -2.1939    0.4202 C   0  0  0  0  0  0  0  0  0  0  0  0
   -0.3181   -2.9519    0.7312 O   0  0  0  0  0  0  0  0  0  0  0  0
   -1.0281   -0.9259    0.0662 N   0  0  0  0  0  0  0  0  0  0  0  0
   -1.8301   -0.3519   -0.1548 H   0  0  0  0  0  0  0  0  0  0  0  0
    0.2709   -0.2409    0.0912 C   0  0  1  0  0  0  0  0  0  0  0  0
    0.2912    0.5022   -0.7064 H   0  0  0  0  0  0  0  0  0  0  0  0
    0.4489    0.4926    1.4269 C   0  0  0  0  0  0  0  0  0  0  0  0
    1.3680    1.0799    1.3928 H   0  0  0  0  0  0  0  0  0  0  0  0
   -0.3942    1.1669    1.5879 H   0  0  0  0  0  0  0  0  0  0  0  0
    0.5353   -0.4261    2.5000 O   0  0  0  0  0  0  0  0  0  0  0  0
    0.8185    0.0538    3.2857 H   0  0  0  0  0  0  0  0  0  0  0  0
    1.4132   -1.2395   -0.1589 C   0  0  0  0  0  0  0  0  0  0  0  0
    1.4582   -1.8729   -1.2141 O   0  0  0  0  0  0  0  0  0  0  0  0
    2.3397   -1.3747    0.7960 N   0  0  0  0  0  0  0  0  0  0  0  0
    2.1693   -0.8839    1.6638 H   0  0  0  0  0  0  0  0  0  0  0  0
    3.4988   -2.2610    0.7110 C   0  0  0  0  0  0  0  0  0  0  0  0
    3.9709   -2.1594   -0.2685 H   0  0  0  0  0  0  0  0  0  0  0  0
    4.2228   -2.0088    1.4864 H   0  0  0  0  0  0  0  0  0  0  0  0
    3.1780   -3.2969    0.8384 H   0  0  0  0  0  0  0  0  0  0  0  0
  5  6  2  0  0  0  0
  5  7  1  0  0  0  0
  2  3  1  0  0  0  0
  2  4  1  0  0  0  0
  2  5  1  0  0  0  0
  1  2  1  0  0  0  0
 16 17  2  0  0  0  0
 16 18  1  0  0  0  0
 14 15  1  0  0  0  0
 11 12  1  0  0  0  0
 11 13  1  0  0  0  0
 11 14  1  0  0  0  0
  9 10  1  0  0  0  0
  9 11  1  0  0  0  0
  9 16  1  0  0  0  0
  7  8  1  0  0  0  0
  7  9  1  0  0  0  0
 20 21  1  0  0  0  0
 20 22  1  0  0  0  0
 20 23  1  0  0  0  0
 18 19  1  0  0  0  0
 18 20  1  0  0  0  0
M  END
$$$$
default_name
  -OEChem-01062215323D

 23 22  0     1  0  0  0  0  0999 V2000
   -2.6721   -3.7279    0.7212 H   0  0  0  0  0  0  0  0  0  0  0  0
   -2.6561   -2.6819    0.4162 C   0  0  0  0  0  0  0  0  0  0  0  0
   -3.2401   -2.0889    1.1172 H   0  0  0  0  0  0  0  0  0  0  0  0
   -3.0671   -2.5859   -0.5858 H   0  0  0  0  0  0  0  0  0  0  0  0
   -1.2261   -2.1939    0.4202 C   0  0  0  0  0  0  0  0  0  0  0  0
   -0.3181   -2.9519    0.7312 O   0  0  0  0  0  0  0  0  0  0  0  0
   -1.0281   -0.9259    0.0662 N   0  0  0  0  0  0  0  0  0  0  0  0
   -1.8301   -0.3519   -0.1548 H   0  0  0  0  0  0  0  0  0  0  0  0
    0.2709   -0.2409    0.0912 C   0  0  1  0  0  0  0  0  0  0  0  0
    0.2912    0.5022   -0.7064 H   0  0  0  0  0  0  0  0  0  0  0  0
    0.4489    0.4926    1.4269 C   0  0  0  0  0  0  0  0  0  0  0  0
    1.3680    1.0799    1.3928 H   0  0  0  0  0  0  0  0  0  0  0  0
   -0.3942    1.1669    1.5879 H   0  0  0  0  0  0  0  0  0  0  0  0
    0.5353   -0.4261    2.5000 O   0  0  0  0  0  0  0  0  0  0  0  0
    0.8185    0.0538    3.2857 H   0  0  0  0  0  0  0  0  0  0  0  0
    1.4132   -1.2395   -0.1589 C   0  0  0  0  0  0  0  0  0  0  0  0
    1.6230   -1.6640   -1.2958 O   0  0  0  0  0  0  0  0  0  0  0  0
    2.1577   -1.6064    0.8898 N   0  0  0  0  0  0  0  0  0  0  0  0
    1.8530   -1.2790    1.7969 H   0  0  0  0  0  0  0  0  0  0  0  0
    3.2910   -2.5270    0.8241 C   0  0  0  0  0  0  0  0  0  0  0  0
    3.9271   -2.2703   -0.0257 H   0  0  0  0  0  0  0  0  0  0  0  0
    3.8769   -2.4685    1.7418 H   0  0  0  0  0  0  0  0  0  0  0  0
    2.9265   -3.5478    0.6917 H   0  0  0  0  0  0  0  0  0  0  0  0
  5  6  2  0  0  0  0
  5  7  1  0  0  0  0
  2  3  1  0  0  0  0
  2  4  1  0  0  0  0
  2  5  1  0  0  0  0
  1  2  1  0  0  0  0
 16 17  2  0  0  0  0
 16 18  1  0  0  0  0
 14 15  1  0  0  0  0
 11 12  1  0  0  0  0
 11 13  1  0  0  0  0
 11 14  1  0  0  0  0
  9 10  1  0  0  0  0
  9 11  1  0  0  0  0
  9 16  1  0  0  0  0
  7  8  1  0  0  0  0
  7  9  1  0  0  0  0
 20 21  1  0  0  0  0
 20 22  1  0  0  0  0
 20 23  1  0  0  0  0
 18 19  1  0  0  0  0
 18 20  1  0  0  0  0
M  END
$$$$
default_name
  -OEChem-01062215323D

 23 22  0     1  0  0  0  0  0999 V2000
   -2.6721   -3.7279    0.7212 H   0  0  0  0  0  0  0  0  0  0  0  0
   -2.6561   -2.6819    0.4162 C   0  0  0  0  0  0  0  0  0  0  0  0
   -3.2401   -2.0889    1.1172 H   0  0  0  0  0  0  0  0  0  0  0  0
   -3.0671   -2.5859   -0.5858 H   0  0  0  0  0  0  0  0  0  0  0  0
   -1.2261   -2.1939    0.4202 C   0  0  0  0  0  0  0  0  0  0  0  0
   -0.3181   -2.9519    0.7312 O   0  0  0  0  0  0  0  0  0  0  0  0
   -1.0281   -0.9259    0.0662 N   0  0  0  0  0  0  0  0  0  0  0  0
   -1.8301   -0.3519   -0.1548 H   0  0  0  0  0  0  0  0  0  0  0  0
    0.2709   -0.2409    0.0912 C   0  0  1  0  0  0  0  0  0  0  0  0
    0.2912    0.5022   -0.7064 H   0  0  0  0  0  0  0  0  0  0  0  0
    0.4489    0.4926    1.4269 C   0  0  0  0  0  0  0  0  0  0  0  0
    1.3680    1.0799    1.3928 H   0  0  0  0  0  0  0  0  0  0  0  0
   -0.3942    1.1669    1.5879 H   0  0  0  0  0  0  0  0  0  0  0  0
    0.5353   -0.4261    2.5000 O   0  0  0  0  0  0  0  0  0  0  0  0
    0.8185    0.0538    3.2857 H   0  0  0  0  0  0  0  0  0  0  0  0
    1.4132   -1.2395   -0.1589 C   0  0  0  0  0  0  0  0  0  0  0  0
    1.8046   -1.4534   -1.3068 O   0  0  0  0  0  0  0  0  0  0  0  0
    1.9563   -1.8406    0.9052 N   0  0  0  0  0  0  0  0  0  0  0  0
    1.5085   -1.6730    1.7964 H   0  0  0  0  0  0  0  0  0  0  0  0
    3.0600   -2.7970    0.8472 C   0  0  0  0  0  0  0  0  0  0  0  0
    3.8394   -2.4222    0.1802 H   0  0  0  0  0  0  0  0  0  0  0  0
    3.4804   -2.9470    1.8420 H   0  0  0  0  0  0  0  0  0  0  0  0
    2.6977   -3.7514    0.4595 H   0  0  0  0  0  0  0  0  0  0  0  0
  5  6  2  0  0  0  0
  5  7  1  0  0  0  0
  2  3  1  0  0  0  0
  2  4  1  0  0  0  0
  2  5  1  0  0  0  0
  1  2  1  0  0  0  0
 16 17  2  0  0  0  0
 16 18  1  0  0  0  0
 14 15  1  0  0  0  0
 11 12  1  0  0  0  0
 11 13  1  0  0  0  0
 11 14  1  0  0  0  0
  9 10  1  0  0  0  0
  9 11  1  0  0  0  0
  9 16  1  0  0  0  0
  7  8  1  0  0  0  0
  7  9  1  0  0  0  0
 20 21  1  0  0  0  0
 20 22  1  0  0  0  0
 20 23  1  0  0  0  0
 18 19  1  0  0  0  0
 18 20  1  0  0  0  0
M  END
$$$$
default_name
  -OEChem-01062215323D

 23 22  0     1  0  0  0  0  0999 V2000
   -2.6721   -3.7279    0.7212 H   0  0  0  0  0  0  0  0  0  0  0  0
   -2.6561   -2.6819    0.4162 C   0  0  0  0  0  0  0  0  0  0  0  0
   -3.2401   -2.0889    1.1172 H   0  0  0  0  0  0  0  0  0  0  0  0
   -3.0671   -2.5859   -0.5858 H   0  0  0  0  0  0  0  0  0  0  0  0
   -1.2261   -2.1939    0.4202 C   0  0  0  0  0  0  0  0  0  0  0  0
   -0.3181   -2.9519    0.7312 O   0  0  0  0  0  0  0  0  0  0  0  0
   -1.0281   -0.9259    0.0662 N   0  0  0  0  0  0  0  0  0  0  0  0
   -1.8301   -0.3519   -0.1548 H   0  0  0  0  0  0  0  0  0  0  0  0
    0.2709   -0.2409    0.0912 C   0  0  1  0  0  0  0  0  0  0  0  0
    0.2912    0.5022   -0.7064 H   0  0  0  0  0  0  0  0  0  0  0  0
    0.4489    0.4926    1.4269 C   0  0  0  0  0  0  0  0  0  0  0  0
    1.3680    1.0799    1.3928 H   0  0  0  0  0  0  0  0  0  0  0  0
   -0.3942    1.1669    1.5879 H   0  0  0  0  0  0  0  0  0  0  0  0
    0.5353   -0.4261    2.5000 O   0  0  0  0  0  0  0  0  0  0  0  0
    0.8185    0.0538    3.2857 H   0  0  0  0  0  0  0  0  0  0  0  0
    1.4132   -1.2395   -0.1589 C   0  0  0  0  0  0  0  0  0  0  0  0
    1.9909   -1.2556   -1.2465 O   0  0  0  0  0  0  0  0  0  0  0  0
    1.7494   -2.0613    0.8412 N   0  0  0  0  0  0  0  0  0  0  0  0
    1.1592   -2.0389    1.6623 H   0  0  0  0  0  0  0  0  0  0  0  0
    2.8217   -3.0525    0.7788 C   0  0  0  0  0  0  0  0  0  0  0  0
    3.7136   -2.6049    0.3351 H   0  0  0  0  0  0  0  0  0  0  0  0
    3.0605   -3.4119    1.7801 H   0  0  0  0  0  0  0  0  0  0  0  0
    2.5072   -3.8937    0.1576 H   0  0  0  0  0  0  0  0  0  0  0  0
  5  6  2  0  0  0  0
  5  7  1  0  0  0  0
  2  3  1  0  0  0  0
  2  4  1  0  0  0  0
  2  5  1  0  0  0  0
  1  2  1  0  0  0  0
 16 17  2  0  0  0  0
 16 18  1  0  0  0  0
 14 15  1  0  0  0  0
 11 12  1  0  0  0  0
 11 13  1  0  0  0  0
 11 14  1  0  0  0  0
  9 10  1  0  0  0  0
  9 11  1  0  0  0  0
  9 16  1  0  0  0  0
  7  8  1  0  0  0  0
  7  9  1  0  0  0  0
 20 21  1  0  0  0  0
 20 22  1  0  0  0  0
 20 23  1  0  0  0  0
 18 19  1  0  0  0  0
 18 20  1  0  0  0  0
M  END
$$$$
default_name
  -OEChem-01062215323D

 23 22  0     1  0  0  0  0  0999 V2000
   -2.6721   -3.7279    0.7212 H   0  0  0  0  0  0  0  0  0  0  0  0
   -2.6561   -2.6819    0.4162 C   0  0  0  0  0  0  0  0  0  0  0  0
   -3.2401   -2.0889    1.1172 H   0  0  0  0  0  0  0  0  0  0  0  0
   -3.0671   -2.5859   -0.5858 H   0  0  0  0  0  0  0  0  0  0  0  0
   -1.2261   -2.1939    0.4202 C   0  0  0  0  0  0  0  0  0  0  0  0
   -0.3181   -2.9519    0.7312 O   0  0  0  0  0  0  0  0  0  0  0  0
   -1.0281   -0.9259    0.0662 N   0  0  0  0  0  0  0  0  0  0  0  0
   -1.8301   -0.3519   -0.1548 H   0  0  0  0  0  0  0  0  0  0  0  0
    0.2709   -0.2409    0.0912 C   0  0  1  0  0  0  0  0  0  0  0  0
    0.2912    0.5022   -0.7064 H   0  0  0  0  0  0  0  0  0  0  0  0
    0.4489    0.4926    1.4269 C   0  0  0  0  0  0  0  0  0  0  0  0
    1.3680    1.0799    1.3928 H   0  0  0  0  0  0  0  0  0  0  0  0
   -0.3942    1.1669    1.5879 H   0  0  0  0  0  0  0  0  0  0  0  0
    0.5353   -0.4261    2.5000 O   0  0  0  0  0  0  0  0  0  0  0  0
    0.8185    0.0538    3.2857 H   0  0  0  0  0  0  0  0  0  0  0  0
    1.4132   -1.2395   -0.1589 C   0  0  0  0  0  0  0  0  0  0  0  0
    2.1689   -1.0839   -1.1188 O   0  0  0  0  0  0  0  0  0  0  0  0
    1.5509   -2.2535    0.7022 N   0  0  0  0  0  0  0  0  0  0  0  0
    0.8290   -2.3519    1.4036 H   0  0  0  0  0  0  0  0  0  0  0  0
    2.5922   -3.2761    0.6235 C   0  0  0  0  0  0  0  0  0  0  0  0
    3.5584   -2.8058    0.4285 H   0  0  0  0  0  0  0  0  0  0  0  0
    2.6458   -3.8313    1.5604 H   0  0  0  0  0  0  0  0  0  0  0  0
    2.3679   -3.9652   -0.1934 H   0  0  0  0  0  0  0  0  0  0  0  0
  5  6  2  0  0  0  0
  5  7  1  0  0  0  0
  2  3  1  0  0  0  0
  2  4  1  0  0  0  0
  2  5  1  0  0  0  0
  1  2  1  0  0  0  0
 16 17  2  0  0  0  0
 16 18  1  0  0  0  0
 14 15  1  0  0  0  0
 11 12  1  0  0  0  0
 11 13  1  0  0  0  0
 11 14  1  0  0  0  0
  9 10  1  0  0  0  0
  9 11  1  0  0  0  0
  9 16  1  0  0  0  0
  7  8  1  0  0  0  0
  7  9  1  0  0  0  0
 20 21  1  0  0  0  0
 20 22  1  0  0  0  0
 20 23  1  0  0  0  0
 18 19  1  0  0  0  0
 18 20  1  0  0  0  0
M  END
$$$$
default_name
  -OEChem-01062215323D

 23 22  0     1  0  0  0  0  0999 V2000
   -2.6721   -3.7279    0.7212 H   0  0  0  0  0  0  0  0  0  0  0  0
   -2.6561   -2.6819    0.4162 C   0  0  0  0  0  0  0  0  0  0  0  0
   -3.2401   -2.0889    1.1172 H   0  0  0  0  0  0  0  0  0  0  0  0
   -3.0671   -2.5859   -0.5858 H   0  0  0  0  0  0  0  0  0  0  0  0
   -1.2261   -2.1939    0.4202 C   0  0  0  0  0  0  0  0  0  0  0  0
   -0.3181   -2.9519    0.7312 O   0  0  0  0  0  0  0  0  0  0  0  0
   -1.0281   -0.9259    0.0662 N   0  0  0  0  0  0  0  0  0  0  0  0
   -1.8301   -0.3519   -0.1548 H   0  0  0  0  0  0  0  0  0  0  0  0
    0.2709   -0.2409    0.0912 C   0  0  1  0  0  0  0  0  0  0  0  0
    0.2912    0.5022   -0.7064 H   0  0  0  0  0  0  0  0  0  0  0  0
    0.4489    0.4926    1.4269 C   0  0  0  0  0  0  0  0  0  0  0  0
    1.3680    1.0799    1.3928 H   0  0  0  0  0  0  0  0  0  0  0  0
   -0.3942    1.1669    1.5879 H   0  0  0  0  0  0  0  0  0  0  0  0
    0.5353   -0.4261    2.5000 O   0  0  0  0  0  0  0  0  0  0  0  0
    0.8185    0.0538    3.2857 H   0  0  0  0  0  0  0  0  0  0  0  0
    1.4132   -1.2395   -0.1589 C   0  0  0  0  0  0  0  0  0  0  0  0
    2.3266   -0.9500   -0.9326 O   0  0  0  0  0  0  0  0  0  0  0  0
    1.3745   -2.4040    0.4976 N   0  0  0  0  0  0  0  0  0  0  0  0
    0.5403   -2.5906    1.0381 H   0  0  0  0  0  0  0  0  0  0  0  0
    2.3872   -3.4526    0.3920 C   0  0  0  0  0  0  0  0  0  0  0  0
    3.3843   -3.0113    0.4540 H   0  0  0  0  0  0  0  0  0  0  0  0
    2.2644   -4.1767    1.1978 H   0  0  0  0  0  0  0  0  0  0  0  0
    2.2894   -3.9608   -0.5695 H   0  0  0  0  0  0  0  0  0  0  0  0
  5  6  2  0  0  0  0
  5  7  1  0  0  0  0
  2  3  1  0  0  0  0
  2  4  1  0  0  0  0
  2  5  1  0  0  0  0
  1  2  1  0  0  0  0
 16 17  2  0  0  0  0
 16 18  1  0  0  0  0
 14 15  1  0  0  0  0
 11 12  1  0  0  0  0
 11 13  1  0  0  0  0
 11 14  1  0  0  0  0
  9 10  1  0  0  0  0
  9 11  1  0  0  0  0
  9 16  1  0  0  0  0
  7  8  1  0  0  0  0
  7  9  1  0  0  0  0
 20 21  1  0  0  0  0
 20 22  1  0  0  0  0
 20 23  1  0  0  0  0
 18 19  1  0  0  0  0
 18 20  1  0  0  0  0
M  END
$$$$
default_name
  -OEChem-01062215323D

 23 22  0     1  0  0  0  0  0999 V2000
   -2.6721   -3.7279    0.7212 H   0  0  0  0  0  0  0  0  0  0  0  0
   -2.6561   -2.6819    0.4162 C   0  0  0  0  0  0  0  0  0  0  0  0
   -3.2401   -2.0889    1.1172 H   0  0  0  0  0  0  0  0  0  0  0  0
   -3.0671   -2.5859   -0.5858 H   0  0  0  0  0  0  0  0  0  0  0  0
   -1.2261   -2.1939    0.4202 C   0  0  0  0  0  0  0  0  0  0  0  0
   -0.3181   -2.9519    0.7312 O   0  0  0  0  0  0  0  0  0  0  0  0
   -1.0281   -0.9259    0.0662 N   0  0  0  0  0  0  0  0  0  0  0  0
   -1.8301   -0.3519   -0.1548 H   0  0  0  0  0  0  0  0  0  0  0  0
    0.2709   -0.2409    0.0912 C   0  0  1  0  0  0  0  0  0  0  0  0
    0.2912    0.5022   -0.7064 H   0  0  0  0  0  0  0  0  0  0  0  0
    0.4489    0.4926    1.4269 C   0  0  0  0  0  0  0  0  0  0  0  0
    1.3680    1.0799    1.3928 H   0  0  0  0  0  0  0  0  0  0  0  0
   -0.3942    1.1669    1.5879 H   0  0  0  0  0  0  0  0  0  0  0  0
    0.5353   -0.4261    2.5000 O   0  0  0  0  0  0  0  0  0  0  0  0
    0.8185    0.0538    3.2857 H   0  0  0  0  0  0  0  0  0  0  0  0
    1.4132   -1.2395   -0.1589 C   0  0  0  0  0  0  0  0  0  0  0  0
    2.4533   -0.8632   -0.7004 O   0  0  0  0  0  0  0  0  0  0  0  0
    1.2322   -2.5027    0.2414 N   0  0  0  0  0  0  0  0  0  0  0  0
    0.3129   -2.7387    0.5907 H   0  0  0  0  0  0  0  0  0  0  0  0
    2.2208   -3.5699    0.0999 C   0  0  0  0  0  0  0  0  0  0  0  0
    3.2032   -3.2074    0.4098 H   0  0  0  0  0  0  0  0  0  0  0  0
    1.9425   -4.4247    0.7171 H   0  0  0  0  0  0  0  0  0  0  0  0
    2.2769   -3.8810   -0.9453 H   0  0  0  0  0  0  0  0  0  0  0  0
  5  6  2  0  0  0  0
  5  7  1  0  0  0  0
  2  3  1  0  0  0  0
  2  4  1  0  0  0  0
  2  5  1  0  0  0  0
  1  2  1  0  0  0  0
 16 17  2  0  0  0  0
 16 18  1  0  0  0  0
 14 15  1  0  0  0  0
 11 12  1  0  0  0  0
 11 13  1  0  0  0  0
 11 14  1  0  0  0  0
  9 10  1  0  0  0  0
  9 11  1  0  0  0  0
  9 16  1  0  0  0  0
  7  8  1  0  0  0  0
  7  9  1  0  0  0  0
 20 21  1  0  0  0  0
 20 22  1  0  0  0  0
 20 23  1  0  0  0  0
 18 19  1  0  0  0  0
 18 20  1  0  0  0  0
M  END
$$$$
default_name
  -OEChem-01062215323D

 23 22  0     1  0  0  0  0  0999 V2000
   -2.6721   -3.7279    0.7212 H   0  0  0  0  0  0  0  0  0  0  0  0
   -2.6561   -2.6819    0.4162 C   0  0  0  0  0  0  0  0  0  0  0  0
   -3.2401   -2.0889    1.1172 H   0  0  0  0  0  0  0  0  0  0  0  0
   -3.0671   -2.5859   -0.5858 H   0  0  0  0  0  0  0  0  0  0  0  0
   -1.2261   -2.1939    0.4202 C   0  0  0  0  0  0  0  0  0  0  0  0
   -0.3181   -2.9519    0.7312 O   0  0  0  0  0  0  0  0  0  0  0  0
   -1.0281   -0.9259    0.0662 N   0  0  0  0  0  0  0  0  0  0  0  0
   -1.8301   -0.3519   -0.1548 H   0  0  0  0  0  0  0  0  0  0  0  0
    0.2709   -0.2409    0.0912 C   0  0  1  0  0  0  0  0  0  0  0  0
    0.2912    0.5022   -0.7064 H   0  0  0  0  0  0  0  0  0  0  0  0
    0.4489    0.4926    1.4269 C   0  0  0  0  0  0  0  0  0  0  0  0
    1.3680    1.0799    1.3928 H   0  0  0  0  0  0  0  0  0  0  0  0
   -0.3942    1.1669    1.5879 H   0  0  0  0  0  0  0  0  0  0  0  0
    0.5353   -0.4261    2.5000 O   0  0  0  0  0  0  0  0  0  0  0  0
    0.8185    0.0538    3.2857 H   0  0  0  0  0  0  0  0  0  0  0  0
    1.4132   -1.2395   -0.1589 C   0  0  0  0  0  0  0  0  0  0  0  0
    2.5404   -0.8294   -0.4382 O   0  0  0  0  0  0  0  0  0  0  0  0
    1.1336   -2.5427   -0.0489 N   0  0  0  0  0  0  0  0  0  0  0  0
    0.1622   -2.7862    0.0918 H   0  0  0  0  0  0  0  0  0  0  0  0
    2.1041   -3.6201   -0.2327 C   0  0  0  0  0  0  0  0  0  0  0  0
    3.0275   -3.3807    0.2990 H   0  0  0  0  0  0  0  0  0  0  0  0
    1.7019   -4.5581    0.1510 H   0  0  0  0  0  0  0  0  0  0  0  0
    2.3314   -3.7312   -1.2949 H   0  0  0  0  0  0  0  0  0  0  0  0
  5  6  2  0  0  0  0
  5  7  1  0  0  0  0
  2  3  1  0  0  0  0
  2  4  1  0  0  0  0
  2  5  1  0  0  0  0
  1  2  1  0  0  0  0
 16 17  2  0  0  0  0
 16 18  1  0  0  0  0
 14 15  1  0  0  0  0
 11 12  1  0  0  0  0
 11 13  1  0  0  0  0
 11 14  1  0  0  0  0
  9 10  1  0  0  0  0
  9 11  1  0  0  0  0
  9 16  1  0  0  0  0
  7  8  1  0  0  0  0
  7  9  1  0  0  0  0
 20 21  1  0  0  0  0
 20 22  1  0  0  0  0
 20 23  1  0  0  0  0
 18 19  1  0  0  0  0
 18 20  1  0  0  0  0
M  END
$$$$
default_name
  -OEChem-01062215323D

 23 22  0     1  0  0  0  0  0999 V2000
   -2.6721   -3.7279    0.7212 H   0  0  0  0  0  0  0  0  0  0  0  0
   -2.6561   -2.6819    0.4162 C   0  0  0  0  0  0  0  0  0  0  0  0
   -3.2401   -2.0889    1.1172 H   0  0  0  0  0  0  0  0  0  0  0  0
   -3.0671   -2.5859   -0.5858 H   0  0  0  0  0  0  0  0  0  0  0  0
   -1.2261   -2.1939    0.4202 C   0  0  0  0  0  0  0  0  0  0  0  0
   -0.3181   -2.9519    0.7312 O   0  0  0  0  0  0  0  0  0  0  0  0
   -1.0281   -0.9259    0.0662 N   0  0  0  0  0  0  0  0  0  0  0  0
   -1.8301   -0.3519   -0.1548 H   0  0  0  0  0  0  0  0  0  0  0  0
    0.2709   -0.2409    0.0912 C   0  0  1  0  0  0  0  0  0  0  0  0
    0.2912    0.5022   -0.7064 H   0  0  0  0  0  0  0  0  0  0  0  0
    0.4489    0.4926    1.4269 C   0  0  0  0  0  0  0  0  0  0  0  0
    1.3680    1.0799    1.3928 H   0  0  0  0  0  0  0  0  0  0  0  0
   -0.3942    1.1669    1.5879 H   0  0  0  0  0  0  0  0  0  0  0  0
    0.5353   -0.4261    2.5000 O   0  0  0  0  0  0  0  0  0  0  0  0
    0.8185    0.0538    3.2857 H   0  0  0  0  0  0  0  0  0  0  0  0
    1.4132   -1.2395   -0.1589 C   0  0  0  0  0  0  0  0  0  0  0  0
    2.5818   -0.8507   -0.1638 O   0  0  0  0  0  0  0  0  0  0  0  0
    1.0855   -2.5214   -0.3536 N   0  0  0  0  0  0  0  0  0  0  0  0
    0.0984   -2.7298   -0.4246 H   0  0  0  0  0  0  0  0  0  0  0  0
    2.0452   -3.5997   -0.5832 C   0  0  0  0  0  0  0  0  0  0  0  0
    2.8691   -3.5193    0.1291 H   0  0  0  0  0  0  0  0  0  0  0  0
    1.5590   -4.5681   -0.4620 H   0  0  0  0  0  0  0  0  0  0  0  0
    2.4491   -3.5215   -1.5947 H   0  0  0  0  0  0  0  0  0  0  0  0
  5  6  2  0  0  0  0
  5  7  1  0  0  0  0
  2  3  1  0  0  0  0
  2  4  1  0  0  0  0
  2  5  1  0  0  0  0
  1  2  1  0  0  0  0
 16 17  2  0  0  0  0
 16 18  1  0  0  0  0
 14 15  1  0  0  0  0
 11 12  1  0  0  0  0
 11 13  1  0  0  0  0
 11 14  1  0  0  0  0
  9 10  1  0  0  0  0
  9 11  1  0  0  0  0
  9 16  1  0  0  0  0
  7  8  1  0  0  0  0
  7  9  1  0  0  0  0
 20 21  1  0  0  0  0
 20 22  1  0  0  0  0
 20 23  1  0  0  0  0
 18 19  1  0  0  0  0
 18 20  1  0  0  0  0
M  END
$$$$
default_name
  -OEChem-01062215323D

 23 22  0     1  0  0  0  0  0999 V2000
   -2.6721   -3.7279    0.7212 H   0  0  0  0  0  0  0  0  0  0  0  0
   -2.6561   -2.6819    0.4162 C   0  0  0  0  0  0  0  0  0  0  0  0
   -3.2401   -2.0889    1.1172 H   0  0  0  0  0  0  0  0  0  0  0  0
   -3.0671   -2.5859   -0.5858 H   0  0  0  0  0  0  0  0  0  0  0  0
   -1.2261   -2.1939    0.4202 C   0  0  0  0  0  0  0  0  0  0  0  0
   -0.3181   -2.9519    0.7312 O   0  0  0  0  0  0  0  0  0  0  0  0
   -1.0281   -0.9259    0.0662 N   0  0  0  0  0  0  0  0  0  0  0  0
   -1.8301   -0.3519   -0.1548 H   0  0  0  0  0  0  0  0  0  0  0  0
    0.2709   -0.2409    0.0912 C   0  0  1  0  0  0  0  0  0  0  0  0
    0.2912    0.5022   -0.7064 H   0  0  0  0  0  0  0  0  0  0  0  0
    0.4489    0.4926    1.4269 C   0  0  0  0  0  0  0  0  0  0  0  0
    1.3680    1.0799    1.3928 H   0  0  0  0  0  0  0  0  0  0  0  0
   -0.3942    1.1669    1.5879 H   0  0  0  0  0  0  0  0  0  0  0  0
    0.5353   -0.4261    2.5000 O   0  0  0  0  0  0  0  0  0  0  0  0
    0.8185    0.0538    3.2857 H   0  0  0  0  0  0  0  0  0  0  0  0
    1.4132   -1.2395   -0.1589 C   0  0  0  0  0  0  0  0  0  0  0  0
    2.5747   -0.9258    0.1041 O   0  0  0  0  0  0  0  0  0  0  0  0
    1.0912   -2.4402   -0.6520 N   0  0  0  0  0  0  0  0  0  0  0  0
    0.1260   -2.5734   -0.9233 H   0  0  0  0  0  0  0  0  0  0  0  0
    2.0481   -3.5101   -0.9278 C   0  0  0  0  0  0  0  0  0  0  0  0
    2.7388   -3.6139   -0.0883 H   0  0  0  0  0  0  0  0  0  0  0  0
    1.5236   -4.4539   -1.0800 H   0  0  0  0  0  0  0  0  0  0  0  0
    2.6220   -3.2662   -1.8242 H   0  0  0  0  0  0  0  0  0  0  0  0
  5  6  2  0  0  0  0
  5  7  1  0  0  0  0
  2  3  1  0  0  0  0
  2  4  1  0  0  0  0
  2  5  1  0  0  0  0
  1  2  1  0  0  0  0
 16 17  2  0  0  0  0
 16 18  1  0  0  0  0
 14 15  1  0  0  0  0
 11 12  1  0  0  0  0
 11 13  1  0  0  0  0
 11 14  1  0  0  0  0
  9 10  1  0  0  0  0
  9 11  1  0  0  0  0
  9 16  1  0  0  0  0
  7  8  1  0  0  0  0
  7  9  1  0  0  0  0
 20 21  1  0  0  0  0
 20 22  1  0  0  0  0
 20 23  1  0  0  0  0
 18 19  1  0  0  0  0
 18 20  1  0  0  0  0
M  END
$$$$
default_name
  -OEChem-01062215323D

 23 22  0     1  0  0  0  0  0999 V2000
   -2.6721   -3.7279    0.7212 H   0  0  0  0  0  0  0  0  0  0  0  0
   -2.6561   -2.6819    0.4162 C   0  0  0  0  0  0  0  0  0  0  0  0
   -3.2401   -2.0889    1.1172 H   0  0  0  0  0  0  0  0  0  0  0  0
   -3.0671   -2.5859   -0.5858 H   0  0  0  0  0  0  0  0  0  0  0  0
   -1.2261   -2.1939    0.4202 C   0  0  0  0  0  0  0  0  0  0  0  0
   -0.3181   -2.9519    0.7312 O   0  0  0  0  0  0  0  0  0  0  0  0
   -1.0281   -0.9259    0.0662 N   0  0  0  0  0  0  0  0  0  0  0  0
   -1.8301   -0.3519   -0.1548 H   0  0  0  0  0  0  0  0  0  0  0  0
    0.2709   -0.2409    0.0912 C   0  0  1  0  0  0  0  0  0  0  0  0
    0.2912    0.5022   -0.7064 H   0  0  0  0  0  0  0  0  0  0  0  0
    0.4489    0.4926    1.4269 C   0  0  0  0  0  0  0  0  0  0  0  0
    1.3680    1.0799    1.3928 H   0  0  0  0  0  0  0  0  0  0  0  0
   -0.3942    1.1669    1.5879 H   0  0  0  0  0  0  0  0  0  0  0  0
    0.5353   -0.4261    2.5000 O   0  0  0  0  0  0  0  0  0  0  0  0
    0.8185    0.0538    3.2857 H   0  0  0  0  0  0  0  0  0  0  0  0
    1.4132   -1.2395   -0.1589 C   0  0  0  0  0  0  0  0  0  0  0  0
    2.5198   -1.0496    0.3473 O   0  0  0  0  0  0  0  0  0  0  0  0
    1.1502   -2.3047   -0.9236 N   0  0  0  0  0  0  0  0  0  0  0  0
    0.2431   -2.3275   -1.3702 H   0  0  0  0  0  0  0  0  0  0  0  0
    2.1125   -3.3575   -1.2429 C   0  0  0  0  0  0  0  0  0  0  0  0
    2.6455   -3.6581   -0.3383 H   0  0  0  0  0  0  0  0  0  0  0  0
    1.5980   -4.2232   -1.6609 H   0  0  0  0  0  0  0  0  0  0  0  0
    2.8383   -2.9829   -1.9677 H   0  0  0  0  0  0  0  0  0  0  0  0
  5  6  2  0  0  0  0
  5  7  1  0  0  0  0
  2  3  1  0  0  0  0
  2  4  1  0  0  0  0
  2  5  1  0  0  0  0
  1  2  1  0  0  0  0
 16 17  2  0  0  0  0
 16 18  1  0  0  0  0
 14 15  1  0  0  0  0
 11 12  1  0  0  0  0
 11 13  1  0  0  0  0
 11 14  1  0  0  0  0
  9 10  1  0  0  0  0
  9 11  1  0  0  0  0
  9 16  1  0  0  0  0
  7  8  1  0  0  0  0
  7  9  1  0  0  0  0
 20 21  1  0  0  0  0
 20 22  1  0  0  0  0
 20 23  1  0  0  0  0
 18 19  1  0  0  0  0
 18 20  1  0  0  0  0
M  END
$$$$
default_name
  -OEChem-01062215323D

 23 22  0     1  0  0  0  0  0999 V2000
   -2.6721   -3.7279    0.7212 H   0  0  0  0  0  0  0  0  0  0  0  0
   -2.6561   -2.6819    0.4162 C   0  0  0  0  0  0  0  0  0  0  0  0
   -3.2401   -2.0889    1.1172 H   0  0  0  0  0  0  0  0  0  0  0  0
   -3.0671   -2.5859   -0.5858 H   0  0  0  0  0  0  0  0  0  0  0  0
   -1.2261   -2.1939    0.4202 C   0  0  0  0  0  0  0  0  0  0  0  0
   -0.3181   -2.9519    0.7312 O   0  0  0  0  0  0  0  0  0  0  0  0
   -1.0281   -0.9259    0.0662 N   0  0  0  0  0  0  0  0  0  0  0  0
   -1.8301   -0.3519   -0.1548 H   0  0  0  0  0  0  0  0  0  0  0  0
    0.2709   -0.2409    0.0912 C   0  0  1  0  0  0  0  0  0  0  0  0
    0.2912    0.5022   -0.7064 H   0  0  0  0  0  0  0  0  0  0  0  0
    0.4489    0.4926    1.4269 C   0  0  0  0  0  0  0  0  0  0  0  0
    1.3680    1.0799    1.3928 H   0  0  0  0  0  0  0  0  0  0  0  0
   -0.3942    1.1669    1.5879 H   0  0  0  0  0  0  0  0  0  0  0  0
    0.5353   -0.4261    2.5000 O   0  0  0  0  0  0  0  0  0  0  0  0
    0.8185    0.0538    3.2857 H   0  0  0  0  0  0  0  0  0  0  0  0
    1.4132   -1.2395   -0.1589 C   0  0  0  0  0  0  0  0  0  0  0  0
    2.4206   -1.2136    0.5491 O   0  0  0  0  0  0  0  0  0  0  0  0
    1.2586   -2.1240   -1.1500 N   0  0  0  0  0  0  0  0  0  0  0  0
    0.4417   -2.0091   -1.7350 H   0  0  0  0  0  0  0  0  0  0  0  0
    2.2342   -3.1521   -1.5071 C   0  0  0  0  0  0  0  0  0  0  0  0
    2.5955   -3.6487   -0.6040 H   0  0  0  0  0  0  0  0  0  0  0  0
    1.7773   -3.8919   -2.1651 H   0  0  0  0  0  0  0  0  0  0  0  0
    3.0833   -2.6906   -2.0155 H   0  0  0  0  0  0  0  0  0  0  0  0
  5  6  2  0  0  0  0
  5  7  1  0  0  0  0
  2  3  1  0  0  0  0
  2  4  1  0  0  0  0
  2  5  1  0  0  0  0
  1  2  1  0  0  0  0
 16 17  2  0  0  0  0
 16 18  1  0  0  0  0
 14 15  1  0  0  0  0
 11 12  1  0  0  0  0
 11 13  1  0  0  0  0
 11 14  1  0  0  0  0
  9 10  1  0  0  0  0
  9 11  1  0  0  0  0
  9 16  1  0  0  0  0
  7  8  1  0  0  0  0
  7  9  1  0  0  0  0
 20 21  1  0  0  0  0
 20 22  1  0  0  0  0
 20 23  1  0  0  0  0
 18 19  1  0  0  0  0
 18 20  1  0  0  0  0
M  END
$$$$
default_name
  -OEChem-01062215323D

 23 22  0     1  0  0  0  0  0999 V2000
   -2.6721   -3.7279    0.7212 H   0  0  0  0  0  0  0  0  0  0  0  0
   -2.6561   -2.6819    0.4162 C   0  0  0  0  0  0  0  0  0  0  0  0
   -3.2401   -2.0889    1.1172 H   0  0  0  0  0  0  0  0  0  0  0  0
   -3.0671   -2.5859   -0.5858 H   0  0  0  0  0  0  0  0  0  0  0  0
   -1.2261   -2.1939    0.4202 C   0  0  0  0  0  0  0  0  0  0  0  0
   -0.3181   -2.9519    0.7312 O   0  0  0  0  0  0  0  0  0  0  0  0
   -1.0281   -0.9259    0.0662 N   0  0  0  0  0  0  0  0  0  0  0  0
   -1.8301   -0.3519   -0.1548 H   0  0  0  0  0  0  0  0  0  0  0  0
    0.2709   -0.2409    0.0912 C   0  0  1  0  0  0  0  0  0  0  0  0
    0.2912    0.5022   -0.7064 H   0  0  0  0  0  0  0  0  0  0  0  0
    0.4489    0.4926    1.4269 C   0  0  0  0  0  0  0  0  0  0  0  0
    1.3680    1.0799    1.3928 H   0  0  0  0  0  0  0  0  0  0  0  0
   -0.3942    1.1669    1.5879 H   0  0  0  0  0  0  0  0  0  0  0  0
    0.5353   -0.4261    2.5000 O   0  0  0  0  0  0  0  0  0  0  0  0
    0.8185    0.0538    3.2857 H   0  0  0  0  0  0  0  0  0  0  0  0
    1.4132   -1.2395   -0.1589 C   0  0  0  0  0  0  0  0  0  0  0  0
    2.2840   -1.4066    0.6959 O   0  0  0  0  0  0  0  0  0  0  0  0
    1.4090   -1.9106   -1.3157 N   0  0  0  0  0  0  0  0  0  0  0  0
    0.7082   -1.6397   -1.9927 H   0  0  0  0  0  0  0  0  0  0  0  0
    2.4047   -2.9081   -1.7024 C   0  0  0  0  0  0  0  0  0  0  0  0
    2.5923   -3.5864   -0.8673 H   0  0  0  0  0  0  0  0  0  0  0  0
    2.0492   -3.4824   -2.5584 H   0  0  0  0  0  0  0  0  0  0  0  0
    3.3402   -2.4095   -1.9643 H   0  0  0  0  0  0  0  0  0  0  0  0
  5  6  2  0  0  0  0
  5  7  1  0  0  0  0
  2  3  1  0  0  0  0
  2  4  1  0  0  0  0
  2  5  1  0  0  0  0
  1  2  1  0  0  0  0
 16 17  2  0  0  0  0
 16 18  1  0  0  0  0
 14 15  1  0  0  0  0
 11 12  1  0  0  0  0
 11 13  1  0  0  0  0
 11 14  1  0  0  0  0
  9 10  1  0  0  0  0
  9 11  1  0  0  0  0
  9 16  1  0  0  0  0
  7  8  1  0  0  0  0
  7  9  1  0  0  0  0
 20 21  1  0  0  0  0
 20 22  1  0  0  0  0
 20 23  1  0  0  0  0
 18 19  1  0  0  0  0
 18 20  1  0  0  0  0
M  END
$$$$
default_name
  -OEChem-01062215323D

 23 22  0     1  0  0  0  0  0999 V2000
   -2.6721   -3.7279    0.7212 H   0  0  0  0  0  0  0  0  0  0  0  0
   -2.6561   -2.6819    0.4162 C   0  0  0  0  0  0  0  0  0  0  0  0
   -3.2401   -2.0889    1.1172 H   0  0  0  0  0  0  0  0  0  0  0  0
   -3.0671   -2.5859   -0.5858 H   0  0  0  0  0  0  0  0  0  0  0  0
   -1.2261   -2.1939    0.4202 C   0  0  0  0  0  0  0  0  0  0  0  0
   -0.3181   -2.9519    0.7312 O   0  0  0  0  0  0  0  0  0  0  0  0
   -1.0281   -0.9259    0.0662 N   0  0  0  0  0  0  0  0  0  0  0  0
   -1.8301   -0.3519   -0.1548 H   0  0  0  0  0  0  0  0  0  0  0  0
    0.2709   -0.2409    0.0912 C   0  0  1  0  0  0  0  0  0  0  0  0
    0.2912    0.5022   -0.7064 H   0  0  0  0  0  0  0  0  0  0  0  0
    0.4489    0.4926    1.4269 C   0  0  0  0  0  0  0  0  0  0  0  0
    1.3680    1.0799    1.3928 H   0  0  0  0  0  0  0  0  0  0  0  0
   -0.3942    1.1669    1.5879 H   0  0  0  0  0  0  0  0  0  0  0  0
    0.5353   -0.4261    2.5000 O   0  0  0  0  0  0  0  0  0  0  0  0
    0.8185    0.0538    3.2857 H   0  0  0  0  0  0  0  0  0  0  0  0
    1.4132   -1.2395   -0.1589 C   0  0  0  0  0  0  0  0  0  0  0  0
    2.1192   -1.6156    0.7776 O   0  0  0  0  0  0  0  0  0  0  0  0
    1.5910   -1.6789   -1.4095 N   0  0  0  0  0  0  0  0  0  0  0  0
    1.0244   -1.2446   -2.1259 H   0  0  0  0  0  0  0  0  0  0  0  0
    2.6126   -2.6421   -1.8154 C   0  0  0  0  0  0  0  0  0  0  0  0
    2.6361   -3.4755   -1.1101 H   0  0  0  0  0  0  0  0  0  0  0  0
    2.3951   -3.0227   -2.8138 H   0  0  0  0  0  0  0  0  0  0  0  0
    3.5917   -2.1586   -1.8176 H   0  0  0  0  0  0  0  0  0  0  0  0
  5  6  2  0  0  0  0
  5  7  1  0  0  0  0
  2  3  1  0  0  0  0
  2  4  1  0  0  0  0
  2  5  1  0  0  0  0
  1  2  1  0  0  0  0
 16 17  2  0  0  0  0
 16 18  1  0  0  0  0
 14 15  1  0  0  0  0
 11 12  1  0  0  0  0
 11 13  1  0  0  0  0
 11 14  1  0  0  0  0
  9 10  1  0  0  0  0
  9 11  1  0  0  0  0
  9 16  1  0  0  0  0
  7  8  1  0  0  0  0
  7  9  1  0  0  0  0
 20 21  1  0  0  0  0
 20 22  1  0  0  0  0
 20 23  1  0  0  0  0
 18 19  1  0  0  0  0
 18 20  1  0  0  0  0
M  END
$$$$
default_name
  -OEChem-01062215323D

 23 22  0     1  0  0  0  0  0999 V2000
   -2.6721   -3.7279    0.7212 H   0  0  0  0  0  0  0  0  0  0  0  0
   -2.6561   -2.6819    0.4162 C   0  0  0  0  0  0  0  0  0  0  0  0
   -3.2401   -2.0889    1.1172 H   0  0  0  0  0  0  0  0  0  0  0  0
   -3.0671   -2.5859   -0.5858 H   0  0  0  0  0  0  0  0  0  0  0  0
   -1.2261   -2.1939    0.4202 C   0  0  0  0  0  0  0  0  0  0  0  0
   -0.3181   -2.9519    0.7312 O   0  0  0  0  0  0  0  0  0  0  0  0
   -1.0281   -0.9259    0.0662 N   0  0  0  0  0  0  0  0  0  0  0  0
   -1.8301   -0.3519   -0.1548 H   0  0  0  0  0  0  0  0  0  0  0  0
    0.2709   -0.2409    0.0912 C   0  0  1  0  0  0  0  0  0  0  0  0
    0.2912    0.5022   -0.7064 H   0  0  0  0  0  0  0  0  0  0  0  0
    0.4489    0.4926    1.4269 C   0  0  0  0  0  0  0  0  0  0  0  0
    1.3680    1.0799    1.3928 H   0  0  0  0  0  0  0  0  0  0  0  0
   -0.3942    1.1669    1.5879 H   0  0  0  0  0  0  0  0  0  0  0  0
    0.5353   -0.4261    2.5000 O   0  0  0  0  0  0  0  0  0  0  0  0
    0.8185    0.0538    3.2857 H   0  0  0  0  0  0  0  0  0  0  0  0
    1.4132   -1.2395   -0.1589 C   0  0  0  0  0  0  0  0  0  0  0  0
    1.9375   -1.8261    0.7886 O   0  0  0  0  0  0  0  0  0  0  0  0
    1.7924   -1.4447   -1.4249 N   0  0  0  0  0  0  0  0  0  0  0  0
    1.3689   -0.8506   -2.1254 H   0  0  0  0  0  0  0  0  0  0  0  0
    2.8435   -2.3721   -1.8385 C   0  0  0  0  0  0  0  0  0  0  0  0
    2.7239   -3.3236   -1.3160 H   0  0  0  0  0  0  0  0  0  0  0  0
    2.7916   -2.5442   -2.9140 H   0  0  0  0  0  0  0  0  0  0  0  0
    3.8205   -1.9550   -1.5854 H   0  0  0  0  0  0  0  0  0  0  0  0
  5  6  2  0  0  0  0
  5  7  1  0  0  0  0
  2  3  1  0  0  0  0
  2  4  1  0  0  0  0
  2  5  1  0  0  0  0
  1  2  1  0  0  0  0
 16 17  2  0  0  0  0
 16 18  1  0  0  0  0
 14 15  1  0  0  0  0
 11 12  1  0  0  0  0
 11 13  1  0  0  0  0
 11 14  1  0  0  0  0
  9 10  1  0  0  0  0
  9 11  1  0  0  0  0
  9 16  1  0  0  0  0
  7  8  1  0  0  0  0
  7  9  1  0  0  0  0
 20 21  1  0  0  0  0
 20 22  1  0  0  0  0
 20 23  1  0  0  0  0
 18 19  1  0  0  0  0
 18 20  1  0  0  0  0
M  END
$$$$
default_name
  -OEChem-01062215323D

 23 22  0     1  0  0  0  0  0999 V2000
   -2.6721   -3.7279    0.7212 H   0  0  0  0  0  0  0  0  0  0  0  0
   -2.6561   -2.6819    0.4162 C   0  0  0  0  0  0  0  0  0  0  0  0
   -3.2401   -2.0889    1.1172 H   0  0  0  0  0  0  0  0  0  0  0  0
   -3.0671   -2.5859   -0.5858 H   0  0  0  0  0  0  0  0  0  0  0  0
   -1.2261   -2.1939    0.4202 C   0  0  0  0  0  0  0  0  0  0  0  0
   -0.3181   -2.9519    0.7312 O   0  0  0  0  0  0  0  0  0  0  0  0
   -1.0281   -0.9259    0.0662 N   0  0  0  0  0  0  0  0  0  0  0  0
   -1.8301   -0.3519   -0.1548 H   0  0  0  0  0  0  0  0  0  0  0  0
    0.2709   -0.2409    0.0912 C   0  0  1  0  0  0  0  0  0  0  0  0
    0.2912    0.5022   -0.7064 H   0  0  0  0  0  0  0  0  0  0  0  0
    0.4489    0.4926    1.4269 C   0  0  0  0  0  0  0  0  0  0  0  0
    1.3680    1.0799    1.3928 H   0  0  0  0  0  0  0  0  0  0  0  0
   -0.3942    1.1669    1.5879 H   0  0  0  0  0  0  0  0  0  0  0  0
    0.5353   -0.4261    2.5000 O   0  0  0  0  0  0  0  0  0  0  0  0
    0.8185    0.0538    3.2857 H   0  0  0  0  0  0  0  0  0  0  0  0
    1.4132   -1.2395   -0.1589 C   0  0  0  0  0  0  0  0  0  0  0  0
    1.7513   -2.0240    0.7282 O   0  0  0  0  0  0  0  0  0  0  0  0
    1.9993   -1.2240   -1.3609 N   0  0  0  0  0  0  0  0  0  0  0  0
    1.7182   -0.4847   -1.9912 H   0  0  0  0  0  0  0  0  0  0  0  0
    3.0819   -2.1166   -1.7701 C   0  0  0  0  0  0  0  0  0  0  0  0
    2.8497   -3.1409   -1.4709 H   0  0  0  0  0  0  0  0  0  0  0  0
    3.2115   -2.0793   -2.8521 H   0  0  0  0  0  0  0  0  0  0  0  0
    4.0110   -1.8127   -1.2835 H   0  0  0  0  0  0  0  0  0  0  0  0
  5  6  2  0  0  0  0
  5  7  1  0  0  0  0
  2  3  1  0  0  0  0
  2  4  1  0  0  0  0
  2  5  1  0  0  0  0
  1  2  1  0  0  0  0
 16 17  2  0  0  0  0
 16 18  1  0  0  0  0
 14 15  1  0  0  0  0
 11 12  1  0  0  0  0
 11 13  1  0  0  0  0
 11 14  1  0  0  0  0
  9 10  1  0  0  0  0
  9 11  1  0  0  0  0
  9 16  1  0  0  0  0
  7  8  1  0  0  0  0
  7  9  1  0  0  0  0
 20 21  1  0  0  0  0
 20 22  1  0  0  0  0
 20 23  1  0  0  0  0
 18 19  1  0  0  0  0
 18 20  1  0  0  0  0
M  END
$$$$
default_name
  -OEChem-01062215323D

 23 22  0     1  0  0  0  0  0999 V2000
   -2.6721   -3.7279    0.7212 H   0  0  0  0  0  0  0  0  0  0  0  0
   -2.6561   -2.6819    0.4162 C   0  0  0  0  0  0  0  0  0  0  0  0
   -3.2401   -2.0889    1.1172 H   0  0  0  0  0  0  0  0  0  0  0  0
   -3.0671   -2.5859   -0.5858 H   0  0  0  0  0  0  0  0  0  0  0  0
   -1.2261   -2.1939    0.4202 C   0  0  0  0  0  0  0  0  0  0  0  0
   -0.3181   -2.9519    0.7312 O   0  0  0  0  0  0  0  0  0  0  0  0
   -1.0281   -0.9259    0.0662 N   0  0  0  0  0  0  0  0  0  0  0  0
   -1.8301   -0.3519   -0.1548 H   0  0  0  0  0  0  0  0  0  0  0  0
    0.2709   -0.2409    0.0912 C   0  0  1  0  0  0  0  0  0  0  0  0
    0.2912    0.5022   -0.7064 H   0  0  0  0  0  0  0  0  0  0  0  0
    0.4489    0.4926    1.4269 C   0  0  0  0  0  0  0  0  0  0  0  0
    1.3680    1.0799    1.3928 H   0  0  0  0  0  0  0  0  0  0  0  0
   -0.3942    1.1669    1.5879 H   0  0  0  0  0  0  0  0  0  0  0  0
    0.5353   -0.4261    2.5000 O   0  0  0  0  0  0  0  0  0  0  0  0
    0.8185    0.0538    3.2857 H   0  0  0  0  0  0  0  0  0  0  0  0
    1.4132   -1.2395   -0.1589 C   0  0  0  0  0  0  0  0  0  0  0  0
    1.5733   -2.1957    0.6006 O   0  0  0  0  0  0  0  0  0  0  0  0
    2.1977   -1.0318   -1.2219 N   0  0  0  0  0  0  0  0  0  0  0  0
    2.0484   -0.1717   -1.7326 H   0  0  0  0  0  0  0  0  0  0  0  0
    3.3113   -1.8930   -1.6149 C   0  0  0  0  0  0  0  0  0  0  0  0
    3.0049   -2.9400   -1.5643 H   0  0  0  0  0  0  0  0  0  0  0  0
    3.6262   -1.6599   -2.6324 H   0  0  0  0  0  0  0  0  0  0  0  0
    4.1503   -1.7413   -0.9326 H   0  0  0  0  0  0  0  0  0  0  0  0
  5  6  2  0  0  0  0
  5  7  1  0  0  0  0
  2  3  1  0  0  0  0
  2  4  1  0  0  0  0
  2  5  1  0  0  0  0
  1  2  1  0  0  0  0
 16 17  2  0  0  0  0
 16 18  1  0  0  0  0
 14 15  1  0  0  0  0
 11 12  1  0  0  0  0
 11 13  1  0  0  0  0
 11 14  1  0  0  0  0
  9 10  1  0  0  0  0
  9 11  1  0  0  0  0
  9 16  1  0  0  0  0
  7  8  1  0  0  0  0
  7  9  1  0  0  0  0
 20 21  1  0  0  0  0
 20 22  1  0  0  0  0
 20 23  1  0  0  0  0
 18 19  1  0  0  0  0
 18 20  1  0  0  0  0
M  END
$$$$
default_name
  -OEChem-01062215323D

 23 22  0     1  0  0  0  0  0999 V2000
   -2.6721   -3.7279    0.7212 H   0  0  0  0  0  0  0  0  0  0  0  0
   -2.6561   -2.6819    0.4162 C   0  0  0  0  0  0  0  0  0  0  0  0
   -3.2401   -2.0889    1.1172 H   0  0  0  0  0  0  0  0  0  0  0  0
   -3.0671   -2.5859   -0.5858 H   0  0  0  0  0  0  0  0  0  0  0  0
   -1.2261   -2.1939    0.4202 C   0  0  0  0  0  0  0  0  0  0  0  0
   -0.3181   -2.9519    0.7312 O   0  0  0  0  0  0  0  0  0  0  0  0
   -1.0281   -0.9259    0.0662 N   0  0  0  0  0  0  0  0  0  0  0  0
   -1.8301   -0.3519   -0.1548 H   0  0  0  0  0  0  0  0  0  0  0  0
    0.2709   -0.2409    0.0912 C   0  0  1  0  0  0  0  0  0  0  0  0
    0.2912    0.5022   -0.7064 H   0  0  0  0  0  0  0  0  0  0  0  0
    0.4489    0.4926    1.4269 C   0  0  0  0  0  0  0  0  0  0  0  0
    1.3680    1.0799    1.3928 H   0  0  0  0  0  0  0  0  0  0  0  0
   -0.3942    1.1669    1.5879 H   0  0  0  0  0  0  0  0  0  0  0  0
    0.5353   -0.4261    2.5000 O   0  0  0  0  0  0  0  0  0  0  0  0
    0.8185    0.0538    3.2857 H   0  0  0  0  0  0  0  0  0  0  0  0
    1.4132   -1.2395   -0.1589 C   0  0  0  0  0  0  0  0  0  0  0  0
    1.4155   -2.3295    0.4143 O   0  0  0  0  0  0  0  0  0  0  0  0
    2.3741   -0.8813   -1.0173 N   0  0  0  0  0  0  0  0  0  0  0  0
    2.3371    0.0670   -1.3671 H   0  0  0  0  0  0  0  0  0  0  0  0
    3.5163   -1.7165   -1.3833 C   0  0  0  0  0  0  0  0  0  0  0  0
    3.1789   -2.7345   -1.5897 H   0  0  0  0  0  0  0  0  0  0  0  0
    4.0076   -1.3145   -2.2698 H   0  0  0  0  0  0  0  0  0  0  0  0
    4.2288   -1.7456   -0.5564 H   0  0  0  0  0  0  0  0  0  0  0  0
  5  6  2  0  0  0  0
  5  7  1  0  0  0  0
  2  3  1  0  0  0  0
  2  4  1  0  0  0  0
  2  5  1  0  0  0  0
  1  2  1  0  0  0  0
 16 17  2  0  0  0  0
 16 18  1  0  0  0  0
 14 15  1  0  0  0  0
 11 12  1  0  0  0  0
 11 13  1  0  0  0  0
 11 14  1  0  0  0  0
  9 10  1  0  0  0  0
  9 11  1  0  0  0  0
  9 16  1  0  0  0  0
  7  8  1  0  0  0  0
  7  9  1  0  0  0  0
 20 21  1  0  0  0  0
 20 22  1  0  0  0  0
 20 23  1  0  0  0  0
 18 19  1  0  0  0  0
 18 20  1  0  0  0  0
M  END
$$$$
default_name
  -OEChem-01062215323D

 23 22  0     1  0  0  0  0  0999 V2000
   -2.6721   -3.7279    0.7212 H   0  0  0  0  0  0  0  0  0  0  0  0
   -2.6561   -2.6819    0.4162 C   0  0  0  0  0  0  0  0  0  0  0  0
   -3.2401   -2.0889    1.1172 H   0  0  0  0  0  0  0  0  0  0  0  0
   -3.0671   -2.5859   -0.5858 H   0  0  0  0  0  0  0  0  0  0  0  0
   -1.2261   -2.1939    0.4202 C   0  0  0  0  0  0  0  0  0  0  0  0
   -0.3181   -2.9519    0.7312 O   0  0  0  0  0  0  0  0  0  0  0  0
   -1.0281   -0.9259    0.0662 N   0  0  0  0  0  0  0  0  0  0  0  0
   -1.8301   -0.3519   -0.1548 H   0  0  0  0  0  0  0  0  0  0  0  0
    0.2709   -0.2409    0.0912 C   0  0  1  0  0  0  0  0  0  0  0  0
    0.2912    0.5022   -0.7064 H   0  0  0  0  0  0  0  0  0  0  0  0
    0.4489    0.4926    1.4269 C   0  0  0  0  0  0  0  0  0  0  0  0
    1.3680    1.0799    1.3928 H   0  0  0  0  0  0  0  0  0  0  0  0
   -0.3942    1.1669    1.5879 H   0  0  0  0  0  0  0  0  0  0  0  0
    0.5353   -0.4261    2.5000 O   0  0  0  0  0  0  0  0  0  0  0  0
    0.8185    0.0538    3.2857 H   0  0  0  0  0  0  0  0  0  0  0  0
    1.4132   -1.2395   -0.1589 C   0  0  0  0  0  0  0  0  0  0  0  0
    1.2888   -2.4163    0.1822 O   0  0  0  0  0  0  0  0  0  0  0  0
    2.5164   -0.7826   -0.7611 N   0  0  0  0  0  0  0  0  0  0  0  0
    2.5645    0.2151   -0.9196 H   0  0  0  0  0  0  0  0  0  0  0  0
    3.6828   -1.5992   -1.0913 C   0  0  0  0  0  0  0  0  0  0  0  0
    3.3600   -2.5384   -1.5455 H   0  0  0  0  0  0  0  0  0  0  0  0
    4.3295   -1.0666   -1.7891 H   0  0  0  0  0  0  0  0  0  0  0  0
    4.2413   -1.8254   -0.1807 H   0  0  0  0  0  0  0  0  0  0  0  0
  5  6  2  0  0  0  0
  5  7  1  0  0  0  0
  2  3  1  0  0  0  0
  2  4  1  0  0  0  0
  2  5  1  0  0  0  0
  1  2  1  0  0  0  0
 16 17  2  0  0  0  0
 16 18  1  0  0  0  0
 14 15  1  0  0  0  0
 11 12  1  0  0  0  0
 11 13  1  0  0  0  0
 11 14  1  0  0  0  0
  9 10  1  0  0  0  0
  9 11  1  0  0  0  0
  9 16  1  0  0  0  0
  7  8  1  0  0  0  0
  7  9  1  0  0  0  0
 20 21  1  0  0  0  0
 20 22  1  0  0  0  0
 20 23  1  0  0  0  0
 18 19  1  0  0  0  0
 18 20  1  0  0  0  0
M  END
$$$$
default_name
  -OEChem-01062215323D

 23 22  0     1  0  0  0  0  0999 V2000
   -2.6721   -3.7279    0.7212 H   0  0  0  0  0  0  0  0  0  0  0  0
   -2.6561   -2.6819    0.4162 C   0  0  0  0  0  0  0  0  0  0  0  0
   -3.2401   -2.0889    1.1172 H   0  0  0  0  0  0  0  0  0  0  0  0
   -3.0671   -2.5859   -0.5858 H   0  0  0  0  0  0  0  0  0  0  0  0
   -1.2261   -2.1939    0.4202 C   0  0  0  0  0  0  0  0  0  0  0  0
   -0.3181   -2.9519    0.7312 O   0  0  0  0  0  0  0  0  0  0  0  0
   -1.0281   -0.9259    0.0662 N   0  0  0  0  0  0  0  0  0  0  0  0
   -1.8301   -0.3519   -0.1548 H   0  0  0  0  0  0  0  0  0  0  0  0
    0.2709   -0.2409    0.0912 C   0  0  1  0  0  0  0  0  0  0  0  0
    0.2912    0.5022   -0.7064 H   0  0  0  0  0  0  0  0  0  0  0  0
    0.4489    0.4926    1.4269 C   0  0  0  0  0  0  0  0  0  0  0  0
    1.3680    1.0799    1.3928 H   0  0  0  0  0  0  0  0  0  0  0  0
   -0.3942    1.1669    1.5879 H   0  0  0  0  0  0  0  0  0  0  0  0
    0.5353   -0.4261    2.5000 O   0  0  0  0  0  0  0  0  0  0  0  0
    0.8185    0.0538    3.2857 H   0  0  0  0  0  0  0  0  0  0  0  0
    1.4132   -1.2395   -0.1589 C   0  0  0  0  0  0  0  0  0  0  0  0
    1.2018   -2.4502   -0.0800 O   0  0  0  0  0  0  0  0  0  0  0  0
    2.6150   -0.7426   -0.4707 N   0  0  0  0  0  0  0  0  0  0  0  0
    2.7153    0.2626   -0.4207 H   0  0  0  0  0  0  0  0  0  0  0  0
    3.7995   -1.5490   -0.7587 C   0  0  0  0  0  0  0  0  0  0  0  0
    3.5358   -2.3651   -1.4347 H   0  0  0  0  0  0  0  0  0  0  0  0
    4.5702   -0.9331   -1.2230 H   0  0  0  0  0  0  0  0  0  0  0  0
    4.1869   -1.9753    0.1690 H   0  0  0  0  0  0  0  0  0  0  0  0
  5  6  2  0  0  0  0
  5  7  1  0  0  0  0
  2  3  1  0  0  0  0
  2  4  1  0  0  0  0
  2  5  1  0  0  0  0
  1  2  1  0  0  0  0
 16 17  2  0  0  0  0
 16 18  1  0  0  0  0
 14 15  1  0  0  0  0
 11 12  1  0  0  0  0
 11 13  1  0  0  0  0
 11 14  1  0  0  0  0
  9 10  1  0  0  0  0
  9 11  1  0  0  0  0
  9 16  1  0  0  0  0
  7  8  1  0  0  0  0
  7  9  1  0  0  0  0
 20 21  1  0  0  0  0
 20 22  1  0  0  0  0
 20 23  1  0  0  0  0
 18 19  1  0  0  0  0
 18 20  1  0  0  0  0
M  END
$$$$
default_name
  -OEChem-01062215323D

 23 22  0     1  0  0  0  0  0999 V2000
   -2.6721   -3.7279    0.7212 H   0  0  0  0  0  0  0  0  0  0  0  0
   -2.6561   -2.6819    0.4162 C   0  0  0  0  0  0  0  0  0  0  0  0
   -3.2401   -2.0889    1.1172 H   0  0  0  0  0  0  0  0  0  0  0  0
   -3.0671   -2.5859   -0.5858 H   0  0  0  0  0  0  0  0  0  0  0  0
   -1.2261   -2.1939    0.4202 C   0  0  0  0  0  0  0  0  0  0  0  0
   -0.3181   -2.9519    0.7312 O   0  0  0  0  0  0  0  0  0  0  0  0
   -1.0281   -0.9259    0.0662 N   0  0  0  0  0  0  0  0  0  0  0  0
   -1.8301   -0.3519   -0.1548 H   0  0  0  0  0  0  0  0  0  0  0  0
    0.2709   -0.2409    0.0912 C   0  0  1  0  0  0  0  0  0  0  0  0
    0.2015    0.6651   -0.5114 H   0  0  0  0  0  0  0  0  0  0  0  0
    0.6165    0.1710    1.5281 C   0  0  0  0  0  0  0  0  0  0  0  0
    1.5304    0.7673    1.5193 H   0  0  0  0  0  0  0  0  0  0  0  0
   -0.1942    0.7749    1.9395 H   0  0  0  0  0  0  0  0  0  0  0  0
    0.8236   -0.9670    2.3437 O   0  0  0  0  0  0  0  0  0  0  0  0
    1.2045   -0.6743    3.1786 H   0  0  0  0  0  0  0  0  0  0  0  0
    1.3648   -1.1346   -0.5165 C   0  0  0  0  0  0  0  0  0  0  0  0
    1.0787   -2.2522   -0.9476 O   0  0  0  0  0  0  0  0  0  0  0  0
    2.6091   -0.6469   -0.5646 N   0  0  0  0  0  0  0  0  0  0  0  0
    2.7652    0.2395   -0.1035 H   0  0  0  0  0  0  0  0  0  0  0  0
    3.7584   -1.3536   -1.1268 C   0  0  0  0  0  0  0  0  0  0  0  0
    3.4852   -1.8003   -2.0852 H   0  0  0  0  0  0  0  0  0  0  0  0
    4.5885   -0.6626   -1.2764 H   0  0  0  0  0  0  0  0  0  0  0  0
    4.0680   -2.1494   -0.4461 H   0  0  0  0  0  0  0  0  0  0  0  0
  5  6  2  0  0  0  0
  5  7  1  0  0  0  0
  2  3  1  0  0  0  0
  2  4  1  0  0  0  0
  2  5  1  0  0  0  0
  1  2  1  0  0  0  0
 16 17  2  0  0  0  0
 16 18  1  0  0  0  0
 14 15  1  0  0  0  0
 11 12  1  0  0  0  0
 11 13  1  0  0  0  0
 11 14  1  0  0  0  0
  9 10  1  0  0  0  0
  9 11  1  0  0  0  0
  9 16  1  0  0  0  0
  7  8  1  0  0  0  0
  7  9  1  0  0  0  0
 20 21  1  0  0  0  0
 20 22  1  0  0  0  0
 20 23  1  0  0  0  0
 18 19  1  0  0  0  0
 18 20  1  0  0  0  0
M  END
$$$$
default_name
  -OEChem-01062215323D

 23 22  0     1  0  0  0  0  0999 V2000
   -2.6721   -3.7279    0.7212 H   0  0  0  0  0  0  0  0  0  0  0  0
   -2.6561   -2.6819    0.4162 C   0  0  0  0  0  0  0  0  0  0  0  0
   -3.2401   -2.0889    1.1172 H   0  0  0  0  0  0  0  0  0  0  0  0
   -3.0671   -2.5859   -0.5858 H   0  0  0  0  0  0  0  0  0  0  0  0
   -1.2261   -2.1939    0.4202 C   0  0  0  0  0  0  0  0  0  0  0  0
   -0.3181   -2.9519    0.7312 O   0  0  0  0  0  0  0  0  0  0  0  0
   -1.0281   -0.9259    0.0662 N   0  0  0  0  0  0  0  0  0  0  0  0
   -1.8301   -0.3519   -0.1548 H   0  0  0  0  0  0  0  0  0  0  0  0
    0.2709   -0.2409    0.0912 C   0  0  1  0  0  0  0  0  0  0  0  0
    0.2015    0.6651   -0.5114 H   0  0  0  0  0  0  0  0  0  0  0  0
    0.6165    0.1710    1.5281 C   0  0  0  0  0  0  0  0  0  0  0  0
    1.5304    0.7673    1.5193 H   0  0  0  0  0  0  0  0  0  0  0  0
   -0.1942    0.7749    1.9395 H   0  0  0  0  0  0  0  0  0  0  0  0
    0.8236   -0.9670    2.3437 O   0  0  0  0  0  0  0  0  0  0  0  0
    1.2045   -0.6743    3.1786 H   0  0  0  0  0  0  0  0  0  0  0  0
    1.3648   -1.1346   -0.5165 C   0  0  0  0  0  0  0  0  0  0  0  0
    1.0539   -2.1177   -1.1900 O   0  0  0  0  0  0  0  0  0  0  0  0
    2.6389   -0.7943   -0.2944 N   0  0  0  0  0  0  0  0  0  0  0  0
    2.7968   -0.0273    0.3457 H   0  0  0  0  0  0  0  0  0  0  0  0
    3.7964   -1.5196   -0.8142 C   0  0  0  0  0  0  0  0  0  0  0  0
    3.6418   -1.7555   -1.8692 H   0  0  0  0  0  0  0  0  0  0  0  0
    4.6975   -0.9144   -0.7099 H   0  0  0  0  0  0  0  0  0  0  0  0
    3.9217   -2.4534   -0.2622 H   0  0  0  0  0  0  0  0  0  0  0  0
  5  6  2  0  0  0  0
  5  7  1  0  0  0  0
  2  3  1  0  0  0  0
  2  4  1  0  0  0  0
  2  5  1  0  0  0  0
  1  2  1  0  0  0  0
 16 17  2  0  0  0  0
 16 18  1  0  0  0  0
 14 15  1  0  0  0  0
 11 12  1  0  0  0  0
 11 13  1  0  0  0  0
 11 14  1  0  0  0  0
  9 10  1  0  0  0  0
  9 11  1  0  0  0  0
  9 16  1  0  0  0  0
  7  8  1  0  0  0  0
  7  9  1  0  0  0  0
 20 21  1  0  0  0  0
 20 22  1  0  0  0  0
 20 23  1  0  0  0  0
 18 19  1  0  0  0  0
 18 20  1  0  0  0  0
M  END
$$$$
default_name
  -OEChem-01062215323D

 23 22  0     1  0  0  0  0  0999 V2000
   -2.6721   -3.7279    0.7212 H   0  0  0  0  0  0  0  0  0  0  0  0
   -2.6561   -2.6819    0.4162 C   0  0  0  0  0  0  0  0  0  0  0  0
   -3.2401   -2.0889    1.1172 H   0  0  0  0  0  0  0  0  0  0  0  0
   -3.0671   -2.5859   -0.5858 H   0  0  0  0  0  0  0  0  0  0  0  0
   -1.2261   -2.1939    0.4202 C   0  0  0  0  0  0  0  0  0  0  0  0
   -0.3181   -2.9519    0.7312 O   0  0  0  0  0  0  0  0  0  0  0  0
   -1.0281   -0.9259    0.0662 N   0  0  0  0  0  0  0  0  0  0  0  0
   -1.8301   -0.3519   -0.1548 H   0  0  0  0  0  0  0  0  0  0  0  0
    0.2709   -0.2409    0.0912 C   0  0  1  0  0  0  0  0  0  0  0  0
    0.2015    0.6651   -0.5114 H   0  0  0  0  0  0  0  0  0  0  0  0
    0.6165    0.1710    1.5281 C   0  0  0  0  0  0  0  0  0  0  0  0
    1.5304    0.7673    1.5193 H   0  0  0  0  0  0  0  0  0  0  0  0
   -0.1942    0.7749    1.9395 H   0  0  0  0  0  0  0  0  0  0  0  0
    0.8236   -0.9670    2.3437 O   0  0  0  0  0  0  0  0  0  0  0  0
    1.2045   -0.6743    3.1786 H   0  0  0  0  0  0  0  0  0  0  0  0
    1.3648   -1.1346   -0.5165 C   0  0  0  0  0  0  0  0  0  0  0  0
    1.0802   -1.9407   -1.4031 O   0  0  0  0  0  0  0  0  0  0  0  0
    2.6119   -0.9894   -0.0560 N   0  0  0  0  0  0  0  0  0  0  0  0
    2.7324   -0.3709    0.7351 H   0  0  0  0  0  0  0  0  0  0  0  0
    3.7692   -1.7414   -0.5370 C   0  0  0  0  0  0  0  0  0  0  0  0
    3.7652   -1.7680   -1.6288 H   0  0  0  0  0  0  0  0  0  0  0  0
    4.6917   -1.2731   -0.1927 H   0  0  0  0  0  0  0  0  0  0  0  0
    3.7217   -2.7661   -0.1625 H   0  0  0  0  0  0  0  0  0  0  0  0
  5  6  2  0  0  0  0
  5  7  1  0  0  0  0
  2  3  1  0  0  0  0
  2  4  1  0  0  0  0
  2  5  1  0  0  0  0
  1  2  1  0  0  0  0
 16 17  2  0  0  0  0
 16 18  1  0  0  0  0
 14 15  1  0  0  0  0
 11 12  1  0  0  0  0
 11 13  1  0  0  0  0
 11 14  1  0  0  0  0
  9 10  1  0  0  0  0
  9 11  1  0  0  0  0
  9 16  1  0  0  0  0
  7  8  1  0  0  0  0
  7  9  1  0  0  0  0
 20 21  1  0  0  0  0
 20 22  1  0  0  0  0
 20 23  1  0  0  0  0
 18 19  1  0  0  0  0
 18 20  1  0  0  0  0
M  END
$$$$
default_name
  -OEChem-01062215323D

 23 22  0     1  0  0  0  0  0999 V2000
   -2.6721   -3.7279    0.7212 H   0  0  0  0  0  0  0  0  0  0  0  0
   -2.6561   -2.6819    0.4162 C   0  0  0  0  0  0  0  0  0  0  0  0
   -3.2401   -2.0889    1.1172 H   0  0  0  0  0  0  0  0  0  0  0  0
   -3.0671   -2.5859   -0.5858 H   0  0  0  0  0  0  0  0  0  0  0  0
   -1.2261   -2.1939    0.4202 C   0  0  0  0  0  0  0  0  0  0  0  0
   -0.3181   -2.9519    0.7312 O   0  0  0  0  0  0  0  0  0  0  0  0
   -1.0281   -0.9259    0.0662 N   0  0  0  0  0  0  0  0  0  0  0  0
   -1.8301   -0.3519   -0.1548 H   0  0  0  0  0  0  0  0  0  0  0  0
    0.2709   -0.2409    0.0912 C   0  0  1  0  0  0  0  0  0  0  0  0
    0.2015    0.6651   -0.5114 H   0  0  0  0  0  0  0  0  0  0  0  0
    0.6165    0.1710    1.5281 C   0  0  0  0  0  0  0  0  0  0  0  0
    1.5304    0.7673    1.5193 H   0  0  0  0  0  0  0  0  0  0  0  0
   -0.1942    0.7749    1.9395 H   0  0  0  0  0  0  0  0  0  0  0  0
    0.8236   -0.9670    2.3437 O   0  0  0  0  0  0  0  0  0  0  0  0
    1.2045   -0.6743    3.1786 H   0  0  0  0  0  0  0  0  0  0  0  0
    1.3648   -1.1346   -0.5165 C   0  0  0  0  0  0  0  0  0  0  0  0
    1.1557   -1.7331   -1.5724 O   0  0  0  0  0  0  0  0  0  0  0  0
    2.5300   -1.2190    0.1343 N   0  0  0  0  0  0  0  0  0  0  0  0
    2.5765   -0.7679    1.0383 H   0  0  0  0  0  0  0  0  0  0  0  0
    3.6785   -2.0039   -0.3142 C   0  0  0  0  0  0  0  0  0  0  0  0
    3.8469   -1.8370   -1.3803 H   0  0  0  0  0  0  0  0  0  0  0  0
    4.5717   -1.7142    0.2400 H   0  0  0  0  0  0  0  0  0  0  0  0
    3.4815   -3.0659   -0.1538 H   0  0  0  0  0  0  0  0  0  0  0  0
  5  6  2  0  0  0  0
  5  7  1  0  0  0  0
  2  3  1  0  0  0  0
  2  4  1  0  0  0  0
  2  5  1  0  0  0  0
  1  2  1  0  0  0  0
 16 17  2  0  0  0  0
 16 18  1  0  0  0  0
 14 15  1  0  0  0  0
 11 12  1  0  0  0  0
 11 13  1  0  0  0  0
 11 14  1  0  0  0  0
  9 10  1  0  0  0  0
  9 11  1  0  0  0  0
  9 16  1  0  0  0  0
  7  8  1  0  0  0  0
  7  9  1  0  0  0  0
 20 21  1  0  0  0  0
 20 22  1  0  0  0  0
 20 23  1  0  0  0  0
 18 19  1  0  0  0  0
 18 20  1  0  0  0  0
M  END
$$$$
default_name
  -OEChem-01062215323D

 23 22  0     1  0  0  0  0  0999 V2000
   -2.6721   -3.7279    0.7212 H   0  0  0  0  0  0  0  0  0  0  0  0
   -2.6561   -2.6819    0.4162 C   0  0  0  0  0  0  0  0  0  0  0  0
   -3.2401   -2.0889    1.1172 H   0  0  0  0  0  0  0  0  0  0  0  0
   -3.0671   -2.5859   -0.5858 H   0  0  0  0  0  0  0  0  0  0  0  0
   -1.2261   -2.1939    0.4202 C   0  0  0  0  0  0  0  0  0  0  0  0
   -0.3181   -2.9519    0.7312 O   0  0  0  0  0  0  0  0  0  0  0  0
   -1.0281   -0.9259    0.0662 N   0  0  0  0  0  0  0  0  0  0  0  0
   -1.8301   -0.3519   -0.1548 H   0  0  0  0  0  0  0  0  0  0  0  0
    0.2709   -0.2409    0.0912 C   0  0  1  0  0  0  0  0  0  0  0  0
    0.2015    0.6651   -0.5114 H   0  0  0  0  0  0  0  0  0  0  0  0
    0.6165    0.1710    1.5281 C   0  0  0  0  0  0  0  0  0  0  0  0
    1.5304    0.7673    1.5193 H   0  0  0  0  0  0  0  0  0  0  0  0
   -0.1942    0.7749    1.9395 H   0  0  0  0  0  0  0  0  0  0  0  0
    0.8236   -0.9670    2.3437 O   0  0  0  0  0  0  0  0  0  0  0  0
    1.2045   -0.6743    3.1786 H   0  0  0  0  0  0  0  0  0  0  0  0
    1.3648   -1.1346   -0.5165 C   0  0  0  0  0  0  0  0  0  0  0  0
    1.2754   -1.5091   -1.6864 O   0  0  0  0  0  0  0  0  0  0  0  0
    2.3989   -1.4674    0.2635 N   0  0  0  0  0  0  0  0  0  0  0  0
    2.3396   -1.1913    1.2347 H   0  0  0  0  0  0  0  0  0  0  0  0
    3.5305   -2.2892   -0.1610 C   0  0  0  0  0  0  0  0  0  0  0  0
    3.8813   -1.9577   -1.1406 H   0  0  0  0  0  0  0  0  0  0  0  0
    4.3456   -2.2077    0.5587 H   0  0  0  0  0  0  0  0  0  0  0  0
    3.2175   -3.3326   -0.2368 H   0  0  0  0  0  0  0  0  0  0  0  0
  5  6  2  0  0  0  0
  5  7  1  0  0  0  0
  2  3  1  0  0  0  0
  2  4  1  0  0  0  0
  2  5  1  0  0  0  0
  1  2  1  0  0  0  0
 16 17  2  0  0  0  0
 16 18  1  0  0  0  0
 14 15  1  0  0  0  0
 11 12  1  0  0  0  0
 11 13  1  0  0  0  0
 11 14  1  0  0  0  0
  9 10  1  0  0  0  0
  9 11  1  0  0  0  0
  9 16  1  0  0  0  0
  7  8  1  0  0  0  0
  7  9  1  0  0  0  0
 20 21  1  0  0  0  0
 20 22  1  0  0  0  0
 20 23  1  0  0  0  0
 18 19  1  0  0  0  0
 18 20  1  0  0  0  0
M  END
$$$$
default_name
  -OEChem-01062215323D

 23 22  0     1  0  0  0  0  0999 V2000
   -2.6721   -3.7279    0.7212 H   0  0  0  0  0  0  0  0  0  0  0  0
   -2.6561   -2.6819    0.4162 C   0  0  0  0  0  0  0  0  0  0  0  0
   -3.2401   -2.0889    1.1172 H   0  0  0  0  0  0  0  0  0  0  0  0
   -3.0671   -2.5859   -0.5858 H   0  0  0  0  0  0  0  0  0  0  0  0
   -1.2261   -2.1939    0.4202 C   0  0  0  0  0  0  0  0  0  0  0  0
   -0.3181   -2.9519    0.7312 O   0  0  0  0  0  0  0  0  0  0  0  0
   -1.0281   -0.9259    0.0662 N   0  0  0  0  0  0  0  0  0  0  0  0
   -1.8301   -0.3519   -0.1548 H   0  0  0  0  0  0  0  0  0  0  0  0
    0.2709   -0.2409    0.0912 C   0  0  1  0  0  0  0  0  0  0  0  0
    0.2015    0.6651   -0.5114 H   0  0  0  0  0  0  0  0  0  0  0  0
    0.6165    0.1710    1.5281 C   0  0  0  0  0  0  0  0  0  0  0  0
    1.5304    0.7673    1.5193 H   0  0  0  0  0  0  0  0  0  0  0  0
   -0.1942    0.7749    1.9395 H   0  0  0  0  0  0  0  0  0  0  0  0
    0.8236   -0.9670    2.3437 O   0  0  0  0  0  0  0  0  0  0  0  0
    1.2045   -0.6743    3.1786 H   0  0  0  0  0  0  0  0  0  0  0  0
    1.3648   -1.1346   -0.5165 C   0  0  0  0  0  0  0  0  0  0  0  0
    1.4311   -1.2840   -1.7372 O   0  0  0  0  0  0  0  0  0  0  0  0
    2.2273   -1.7178    0.3229 N   0  0  0  0  0  0  0  0  0  0  0  0
    2.0380   -1.6122    1.3107 H   0  0  0  0  0  0  0  0  0  0  0  0
    3.3353   -2.5779   -0.0878 C   0  0  0  0  0  0  0  0  0  0  0  0
    3.8663   -2.1220   -0.9262 H   0  0  0  0  0  0  0  0  0  0  0  0
    4.0287   -2.7199    0.7416 H   0  0  0  0  0  0  0  0  0  0  0  0
    2.9477   -3.5479   -0.4058 H   0  0  0  0  0  0  0  0  0  0  0  0
  5  6  2  0  0  0  0
  5  7  1  0  0  0  0
  2  3  1  0  0  0  0
  2  4  1  0  0  0  0
  2  5  1  0  0  0  0
  1  2  1  0  0  0  0
 16 17  2  0  0  0  0
 16 18  1  0  0  0  0
 14 15  1  0  0  0  0
 11 12  1  0  0  0  0
 11 13  1  0  0  0  0
 11 14  1  0  0  0  0
  9 10  1  0  0  0  0
  9 11  1  0  0  0  0
  9 16  1  0  0  0  0
  7  8  1  0  0  0  0
  7  9  1  0  0  0  0
 20 21  1  0  0  0  0
 20 22  1  0  0  0  0
 20 23  1  0  0  0  0
 18 19  1  0  0  0  0
 18 20  1  0  0  0  0
M  END
$$$$
default_name
  -OEChem-01062215323D

 23 22  0     1  0  0  0  0  0999 V2000
   -2.6721   -3.7279    0.7212 H   0  0  0  0  0  0  0  0  0  0  0  0
   -2.6561   -2.6819    0.4162 C   0  0  0  0  0  0  0  0  0  0  0  0
   -3.2401   -2.0889    1.1172 H   0  0  0  0  0  0  0  0  0  0  0  0
   -3.0671   -2.5859   -0.5858 H   0  0  0  0  0  0  0  0  0  0  0  0
   -1.2261   -2.1939    0.4202 C   0  0  0  0  0  0  0  0  0  0  0  0
   -0.3181   -2.9519    0.7312 O   0  0  0  0  0  0  0  0  0  0  0  0
   -1.0281   -0.9259    0.0662 N   0  0  0  0  0  0  0  0  0  0  0  0
   -1.8301   -0.3519   -0.1548 H   0  0  0  0  0  0  0  0  0  0  0  0
    0.2709   -0.2409    0.0912 C   0  0  1  0  0  0  0  0  0  0  0  0
    0.2015    0.6651   -0.5114 H   0  0  0  0  0  0  0  0  0  0  0  0
    0.6165    0.1710    1.5281 C   0  0  0  0  0  0  0  0  0  0  0  0
    1.5304    0.7673    1.5193 H   0  0  0  0  0  0  0  0  0  0  0  0
   -0.1942    0.7749    1.9395 H   0  0  0  0  0  0  0  0  0  0  0  0
    0.8236   -0.9670    2.3437 O   0  0  0  0  0  0  0  0  0  0  0  0
    1.2045   -0.6743    3.1786 H   0  0  0  0  0  0  0  0  0  0  0  0
    1.3648   -1.1346   -0.5165 C   0  0  0  0  0  0  0  0  0  0  0  0
    1.6121   -1.0732   -1.7214 O   0  0  0  0  0  0  0  0  0  0  0  0
    2.0270   -1.9529    0.3083 N   0  0  0  0  0  0  0  0  0  0  0  0
    1.6922   -2.0019    1.2614 H   0  0  0  0  0  0  0  0  0  0  0  0
    3.1063   -2.8502   -0.0996 C   0  0  0  0  0  0  0  0  0  0  0  0
    3.8026   -2.3185   -0.7516 H   0  0  0  0  0  0  0  0  0  0  0  0
    3.6427   -3.2159    0.7764 H   0  0  0  0  0  0  0  0  0  0  0  0
    2.6905   -3.6972   -0.6493 H   0  0  0  0  0  0  0  0  0  0  0  0
  5  6  2  0  0  0  0
  5  7  1  0  0  0  0
  2  3  1  0  0  0  0
  2  4  1  0  0  0  0
  2  5  1  0  0  0  0
  1  2  1  0  0  0  0
 16 17  2  0  0  0  0
 16 18  1  0  0  0  0
 14 15  1  0  0  0  0
 11 12  1  0  0  0  0
 11 13  1  0  0  0  0
 11 14  1  0  0  0  0
  9 10  1  0  0  0  0
  9 11  1  0  0  0  0
  9 16  1  0  0  0  0
  7  8  1  0  0  0  0
  7  9  1  0  0  0  0
 20 21  1  0  0  0  0
 20 22  1  0  0  0  0
 20 23  1  0  0  0  0
 18 19  1  0  0  0  0
 18 20  1  0  0  0  0
M  END
$$$$
default_name
  -OEChem-01062215323D

 23 22  0     1  0  0  0  0  0999 V2000
   -2.6721   -3.7279    0.7212 H   0  0  0  0  0  0  0  0  0  0  0  0
   -2.6561   -2.6819    0.4162 C   0  0  0  0  0  0  0  0  0  0  0  0
   -3.2401   -2.0889    1.1172 H   0  0  0  0  0  0  0  0  0  0  0  0
   -3.0671   -2.5859   -0.5858 H   0  0  0  0  0  0  0  0  0  0  0  0
   -1.2261   -2.1939    0.4202 C   0  0  0  0  0  0  0  0  0  0  0  0
   -0.3181   -2.9519    0.7312 O   0  0  0  0  0  0  0  0  0  0  0  0
   -1.0281   -0.9259    0.0662 N   0  0  0  0  0  0  0  0  0  0  0  0
   -1.8301   -0.3519   -0.1548 H   0  0  0  0  0  0  0  0  0  0  0  0
    0.2709   -0.2409    0.0912 C   0  0  1  0  0  0  0  0  0  0  0  0
    0.2015    0.6651   -0.5114 H   0  0  0  0  0  0  0  0  0  0  0  0
    0.6165    0.1710    1.5281 C   0  0  0  0  0  0  0  0  0  0  0  0
    1.5304    0.7673    1.5193 H   0  0  0  0  0  0  0  0  0  0  0  0
   -0.1942    0.7749    1.9395 H   0  0  0  0  0  0  0  0  0  0  0  0
    0.8236   -0.9670    2.3437 O   0  0  0  0  0  0  0  0  0  0  0  0
    1.2045   -0.6743    3.1786 H   0  0  0  0  0  0  0  0  0  0  0  0
    1.3648   -1.1346   -0.5165 C   0  0  0  0  0  0  0  0  0  0  0  0
    1.8061   -0.8909   -1.6402 O   0  0  0  0  0  0  0  0  0  0  0  0
    1.8117   -2.1570    0.2208 N   0  0  0  0  0  0  0  0  0  0  0  0
    1.3257   -2.3338    1.0899 H   0  0  0  0  0  0  0  0  0  0  0  0
    2.8590   -3.0876   -0.1956 C   0  0  0  0  0  0  0  0  0  0  0  0
    3.6948   -2.5341   -0.6287 H   0  0  0  0  0  0  0  0  0  0  0  0
    3.2140   -3.6620    0.6606 H   0  0  0  0  0  0  0  0  0  0  0  0
    2.4634   -3.7703   -0.9506 H   0  0  0  0  0  0  0  0  0  0  0  0
  5  6  2  0  0  0  0
  5  7  1  0  0  0  0
  2  3  1  0  0  0  0
  2  4  1  0  0  0  0
  2  5  1  0  0  0  0
  1  2  1  0  0  0  0
 16 17  2  0  0  0  0
 16 18  1  0  0  0  0
 14 15  1  0  0  0  0
 11 12  1  0  0  0  0
 11 13  1  0  0  0  0
 11 14  1  0  0  0  0
  9 10  1  0  0  0  0
  9 11  1  0  0  0  0
  9 16  1  0  0  0  0
  7  8  1  0  0  0  0
  7  9  1  0  0  0  0
 20 21  1  0  0  0  0
 20 22  1  0  0  0  0
 20 23  1  0  0  0  0
 18 19  1  0  0  0  0
 18 20  1  0  0  0  0
M  END
$$$$
default_name
  -OEChem-01062215323D

 23 22  0     1  0  0  0  0  0999 V2000
   -2.6721   -3.7279    0.7212 H   0  0  0  0  0  0  0  0  0  0  0  0
   -2.6561   -2.6819    0.4162 C   0  0  0  0  0  0  0  0  0  0  0  0
   -3.2401   -2.0889    1.1172 H   0  0  0  0  0  0  0  0  0  0  0  0
   -3.0671   -2.5859   -0.5858 H   0  0  0  0  0  0  0  0  0  0  0  0
   -1.2261   -2.1939    0.4202 C   0  0  0  0  0  0  0  0  0  0  0  0
   -0.3181   -2.9519    0.7312 O   0  0  0  0  0  0  0  0  0  0  0  0
   -1.0281   -0.9259    0.0662 N   0  0  0  0  0  0  0  0  0  0  0  0
   -1.8301   -0.3519   -0.1548 H   0  0  0  0  0  0  0  0  0  0  0  0
    0.2709   -0.2409    0.0912 C   0  0  1  0  0  0  0  0  0  0  0  0
    0.2015    0.6651   -0.5114 H   0  0  0  0  0  0  0  0  0  0  0  0
    0.6165    0.1710    1.5281 C   0  0  0  0  0  0  0  0  0  0  0  0
    1.5304    0.7673    1.5193 H   0  0  0  0  0  0  0  0  0  0  0  0
   -0.1942    0.7749    1.9395 H   0  0  0  0  0  0  0  0  0  0  0  0
    0.8236   -0.9670    2.3437 O   0  0  0  0  0  0  0  0  0  0  0  0
    1.2045   -0.6743    3.1786 H   0  0  0  0  0  0  0  0  0  0  0  0
    1.3648   -1.1346   -0.5165 C   0  0  0  0  0  0  0  0  0  0  0  0
    2.0000   -0.7497   -1.4989 O   0  0  0  0  0  0  0  0  0  0  0  0
    1.5961   -2.3159    0.0663 N   0  0  0  0  0  0  0  0  0  0  0  0
    0.9636   -2.5854    0.8080 H   0  0  0  0  0  0  0  0  0  0  0  0
    2.6102   -3.2740   -0.3692 C   0  0  0  0  0  0  0  0  0  0  0  0
    3.5501   -2.7539   -0.5660 H   0  0  0  0  0  0  0  0  0  0  0  0
    2.7716   -4.0277    0.4021 H   0  0  0  0  0  0  0  0  0  0  0  0
    2.2819   -3.7621   -1.2892 H   0  0  0  0  0  0  0  0  0  0  0  0
  5  6  2  0  0  0  0
  5  7  1  0  0  0  0
  2  3  1  0  0  0  0
  2  4  1  0  0  0  0
  2  5  1  0  0  0  0
  1  2  1  0  0  0  0
 16 17  2  0  0  0  0
 16 18  1  0  0  0  0
 14 15  1  0  0  0  0
 11 12  1  0  0  0  0
 11 13  1  0  0  0  0
 11 14  1  0  0  0  0
  9 10  1  0  0  0  0
  9 11  1  0  0  0  0
  9 16  1  0  0  0  0
  7  8  1  0  0  0  0
  7  9  1  0  0  0  0
 20 21  1  0  0  0  0
 20 22  1  0  0  0  0
 20 23  1  0  0  0  0
 18 19  1  0  0  0  0
 18 20  1  0  0  0  0
M  END
$$$$
default_name
  -OEChem-01062215323D

 23 22  0     1  0  0  0  0  0999 V2000
   -2.6721   -3.7279    0.7212 H   0  0  0  0  0  0  0  0  0  0  0  0
   -2.6561   -2.6819    0.4162 C   0  0  0  0  0  0  0  0  0  0  0  0
   -3.2401   -2.0889    1.1172 H   0  0  0  0  0  0  0  0  0  0  0  0
   -3.0671   -2.5859   -0.5858 H   0  0  0  0  0  0  0  0  0  0  0  0
   -1.2261   -2.1939    0.4202 C   0  0  0  0  0  0  0  0  0  0  0  0
   -0.3181   -2.9519    0.7312 O   0  0  0  0  0  0  0  0  0  0  0  0
   -1.0281   -0.9259    0.0662 N   0  0  0  0  0  0  0  0  0  0  0  0
   -1.8301   -0.3519   -0.1548 H   0  0  0  0  0  0  0  0  0  0  0  0
    0.2709   -0.2409    0.0912 C   0  0  1  0  0  0  0  0  0  0  0  0
    0.2015    0.6651   -0.5114 H   0  0  0  0  0  0  0  0  0  0  0  0
    0.6165    0.1710    1.5281 C   0  0  0  0  0  0  0  0  0  0  0  0
    1.5304    0.7673    1.5193 H   0  0  0  0  0  0  0  0  0  0  0  0
   -0.1942    0.7749    1.9395 H   0  0  0  0  0  0  0  0  0  0  0  0
    0.8236   -0.9670    2.3437 O   0  0  0  0  0  0  0  0  0  0  0  0
    1.2045   -0.6743    3.1786 H   0  0  0  0  0  0  0  0  0  0  0  0
    1.3648   -1.1346   -0.5165 C   0  0  0  0  0  0  0  0  0  0  0  0
    2.1804   -0.6591   -1.3073 O   0  0  0  0  0  0  0  0  0  0  0  0
    1.3947   -2.4189   -0.1446 N   0  0  0  0  0  0  0  0  0  0  0  0
    0.6304   -2.7395    0.4350 H   0  0  0  0  0  0  0  0  0  0  0  0
    2.3770   -3.3966   -0.6087 C   0  0  0  0  0  0  0  0  0  0  0  0
    3.3784   -2.9629   -0.5675 H   0  0  0  0  0  0  0  0  0  0  0  0
    2.3458   -4.2880    0.0185 H   0  0  0  0  0  0  0  0  0  0  0  0
    2.1584   -3.6733   -1.6422 H   0  0  0  0  0  0  0  0  0  0  0  0
  5  6  2  0  0  0  0
  5  7  1  0  0  0  0
  2  3  1  0  0  0  0
  2  4  1  0  0  0  0
  2  5  1  0  0  0  0
  1  2  1  0  0  0  0
 16 17  2  0  0  0  0
 16 18  1  0  0  0  0
 14 15  1  0  0  0  0
 11 12  1  0  0  0  0
 11 13  1  0  0  0  0
 11 14  1  0  0  0  0
  9 10  1  0  0  0  0
  9 11  1  0  0  0  0
  9 16  1  0  0  0  0
  7  8  1  0  0  0  0
  7  9  1  0  0  0  0
 20 21  1  0  0  0  0
 20 22  1  0  0  0  0
 20 23  1  0  0  0  0
 18 19  1  0  0  0  0
 18 20  1  0  0  0  0
M  END
$$$$
default_name
  -OEChem-01062215323D

 23 22  0     1  0  0  0  0  0999 V2000
   -2.6721   -3.7279    0.7212 H   0  0  0  0  0  0  0  0  0  0  0  0
   -2.6561   -2.6819    0.4162 C   0  0  0  0  0  0  0  0  0  0  0  0
   -3.2401   -2.0889    1.1172 H   0  0  0  0  0  0  0  0  0  0  0  0
   -3.0671   -2.5859   -0.5858 H   0  0  0  0  0  0  0  0  0  0  0  0
   -1.2261   -2.1939    0.4202 C   0  0  0  0  0  0  0  0  0  0  0  0
   -0.3181   -2.9519    0.7312 O   0  0  0  0  0  0  0  0  0  0  0  0
   -1.0281   -0.9259    0.0662 N   0  0  0  0  0  0  0  0  0  0  0  0
   -1.8301   -0.3519   -0.1548 H   0  0  0  0  0  0  0  0  0  0  0  0
    0.2709   -0.2409    0.0912 C   0  0  1  0  0  0  0  0  0  0  0  0
    0.2015    0.6651   -0.5114 H   0  0  0  0  0  0  0  0  0  0  0  0
    0.6165    0.1710    1.5281 C   0  0  0  0  0  0  0  0  0  0  0  0
    1.5304    0.7673    1.5193 H   0  0  0  0  0  0  0  0  0  0  0  0
   -0.1942    0.7749    1.9395 H   0  0  0  0  0  0  0  0  0  0  0  0
    0.8236   -0.9670    2.3437 O   0  0  0  0  0  0  0  0  0  0  0  0
    1.2045   -0.6743    3.1786 H   0  0  0  0  0  0  0  0  0  0  0  0
    1.3648   -1.1346   -0.5165 C   0  0  0  0  0  0  0  0  0  0  0  0
    2.3352   -0.6254   -1.0784 O   0  0  0  0  0  0  0  0  0  0  0  0
    1.2215   -2.4590   -0.3976 N   0  0  0  0  0  0  0  0  0  0  0  0
    0.3490   -2.7856   -0.0038 H   0  0  0  0  0  0  0  0  0  0  0  0
    2.1752   -3.4471   -0.8976 C   0  0  0  0  0  0  0  0  0  0  0  0
    3.1915   -3.1470   -0.6334 H   0  0  0  0  0  0  0  0  0  0  0  0
    1.9656   -4.4254   -0.4640 H   0  0  0  0  0  0  0  0  0  0  0  0
    2.1013   -3.5100   -1.9853 H   0  0  0  0  0  0  0  0  0  0  0  0
  5  6  2  0  0  0  0
  5  7  1  0  0  0  0
  2  3  1  0  0  0  0
  2  4  1  0  0  0  0
  2  5  1  0  0  0  0
  1  2  1  0  0  0  0
 16 17  2  0  0  0  0
 16 18  1  0  0  0  0
 14 15  1  0  0  0  0
 11 12  1  0  0  0  0
 11 13  1  0  0  0  0
 11 14  1  0  0  0  0
  9 10  1  0  0  0  0
  9 11  1  0  0  0  0
  9 16  1  0  0  0  0
  7  8  1  0  0  0  0
  7  9  1  0  0  0  0
 20 21  1  0  0  0  0
 20 22  1  0  0  0  0
 20 23  1  0  0  0  0
 18 19  1  0  0  0  0
 18 20  1  0  0  0  0
M  END
$$$$
default_name
  -OEChem-01062215323D

 23 22  0     1  0  0  0  0  0999 V2000
   -2.6721   -3.7279    0.7212 H   0  0  0  0  0  0  0  0  0  0  0  0
   -2.6561   -2.6819    0.4162 C   0  0  0  0  0  0  0  0  0  0  0  0
   -3.2401   -2.0889    1.1172 H   0  0  0  0  0  0  0  0  0  0  0  0
   -3.0671   -2.5859   -0.5858 H   0  0  0  0  0  0  0  0  0  0  0  0
   -1.2261   -2.1939    0.4202 C   0  0  0  0  0  0  0  0  0  0  0  0
   -0.3181   -2.9519    0.7312 O   0  0  0  0  0  0  0  0  0  0  0  0
   -1.0281   -0.9259    0.0662 N   0  0  0  0  0  0  0  0  0  0  0  0
   -1.8301   -0.3519   -0.1548 H   0  0  0  0  0  0  0  0  0  0  0  0
    0.2709   -0.2409    0.0912 C   0  0  1  0  0  0  0  0  0  0  0  0
    0.2015    0.6651   -0.5114 H   0  0  0  0  0  0  0  0  0  0  0  0
    0.6165    0.1710    1.5281 C   0  0  0  0  0  0  0  0  0  0  0  0
    1.5304    0.7673    1.5193 H   0  0  0  0  0  0  0  0  0  0  0  0
   -0.1942    0.7749    1.9395 H   0  0  0  0  0  0  0  0  0  0  0  0
    0.8236   -0.9670    2.3437 O   0  0  0  0  0  0  0  0  0  0  0  0
    1.2045   -0.6743    3.1786 H   0  0  0  0  0  0  0  0  0  0  0  0
    1.3648   -1.1346   -0.5165 C   0  0  0  0  0  0  0  0  0  0  0  0
    2.4537   -0.6507   -0.8278 O   0  0  0  0  0  0  0  0  0  0  0  0
    1.0880   -2.4334   -0.6754 N   0  0  0  0  0  0  0  0  0  0  0  0
    0.1385   -2.7205   -0.4785 H   0  0  0  0  0  0  0  0  0  0  0  0
    2.0186   -3.4221   -1.2164 C   0  0  0  0  0  0  0  0  0  0  0  0
    3.0019   -3.2936   -0.7590 H   0  0  0  0  0  0  0  0  0  0  0  0
    1.6568   -4.4303   -1.0125 H   0  0  0  0  0  0  0  0  0  0  0  0
    2.1144   -3.2832   -2.2953 H   0  0  0  0  0  0  0  0  0  0  0  0
  5  6  2  0  0  0  0
  5  7  1  0  0  0  0
  2  3  1  0  0  0  0
  2  4  1  0  0  0  0
  2  5  1  0  0  0  0
  1  2  1  0  0  0  0
 16 17  2  0  0  0  0
 16 18  1  0  0  0  0
 14 15  1  0  0  0  0
 11 12  1  0  0  0  0
 11 13  1  0  0  0  0
 11 14  1  0  0  0  0
  9 10  1  0  0  0  0
  9 11  1  0  0  0  0
  9 16  1  0  0  0  0
  7  8  1  0  0  0  0
  7  9  1  0  0  0  0
 20 21  1  0  0  0  0
 20 22  1  0  0  0  0
 20 23  1  0  0  0  0
 18 19  1  0  0  0  0
 18 20  1  0  0  0  0
M  END
$$$$
default_name
  -OEChem-01062215323D

 23 22  0     1  0  0  0  0  0999 V2000
   -2.6721   -3.7279    0.7212 H   0  0  0  0  0  0  0  0  0  0  0  0
   -2.6561   -2.6819    0.4162 C   0  0  0  0  0  0  0  0  0  0  0  0
   -3.2401   -2.0889    1.1172 H   0  0  0  0  0  0  0  0  0  0  0  0
   -3.0671   -2.5859   -0.5858 H   0  0  0  0  0  0  0  0  0  0  0  0
   -1.2261   -2.1939    0.4202 C   0  0  0  0  0  0  0  0  0  0  0  0
   -0.3181   -2.9519    0.7312 O   0  0  0  0  0  0  0  0  0  0  0  0
   -1.0281   -0.9259    0.0662 N   0  0  0  0  0  0  0  0  0  0  0  0
   -1.8301   -0.3519   -0.1548 H   0  0  0  0  0  0  0  0  0  0  0  0
    0.2709   -0.2409    0.0912 C   0  0  1  0  0  0  0  0  0  0  0  0
    0.2015    0.6651   -0.5114 H   0  0  0  0  0  0  0  0  0  0  0  0
    0.6165    0.1710    1.5281 C   0  0  0  0  0  0  0  0  0  0  0  0
    1.5304    0.7673    1.5193 H   0  0  0  0  0  0  0  0  0  0  0  0
   -0.1942    0.7749    1.9395 H   0  0  0  0  0  0  0  0  0  0  0  0
    0.8236   -0.9670    2.3437 O   0  0  0  0  0  0  0  0  0  0  0  0
    1.2045   -0.6743    3.1786 H   0  0  0  0  0  0  0  0  0  0  0  0
    1.3648   -1.1346   -0.5165 C   0  0  0  0  0  0  0  0  0  0  0  0
    2.5278   -0.7335   -0.5726 O   0  0  0  0  0  0  0  0  0  0  0  0
    1.0036   -2.3439   -0.9591 N   0  0  0  0  0  0  0  0  0  0  0  0
    0.0132   -2.5487   -0.9567 H   0  0  0  0  0  0  0  0  0  0  0  0
    1.9178   -3.3232   -1.5432 C   0  0  0  0  0  0  0  0  0  0  0  0
    2.8228   -3.3926   -0.9358 H   0  0  0  0  0  0  0  0  0  0  0  0
    1.4406   -4.3025   -1.5896 H   0  0  0  0  0  0  0  0  0  0  0  0
    2.1969   -3.0083   -2.5509 H   0  0  0  0  0  0  0  0  0  0  0  0
  5  6  2  0  0  0  0
  5  7  1  0  0  0  0
  2  3  1  0  0  0  0
  2  4  1  0  0  0  0
  2  5  1  0  0  0  0
  1  2  1  0  0  0  0
 16 17  2  0  0  0  0
 16 18  1  0  0  0  0
 14 15  1  0  0  0  0
 11 12  1  0  0  0  0
 11 13  1  0  0  0  0
 11 14  1  0  0  0  0
  9 10  1  0  0  0  0
  9 11  1  0  0  0  0
  9 16  1  0  0  0  0
  7  8  1  0  0  0  0
  7  9  1  0  0  0  0
 20 21  1  0  0  0  0
 20 22  1  0  0  0  0
 20 23  1  0  0  0  0
 18 19  1  0  0  0  0
 18 20  1  0  0  0  0
M  END
$$$$
default_name
  -OEChem-01062215323D

 23 22  0     1  0  0  0  0  0999 V2000
   -2.6721   -3.7279    0.7212 H   0  0  0  0  0  0  0  0  0  0  0  0
   -2.6561   -2.6819    0.4162 C   0  0  0  0  0  0  0  0  0  0  0  0
   -3.2401   -2.0889    1.1172 H   0  0  0  0  0  0  0  0  0  0  0  0
   -3.0671   -2.5859   -0.5858 H   0  0  0  0  0  0  0  0  0  0  0  0
   -1.2261   -2.1939    0.4202 C   0  0  0  0  0  0  0  0  0  0  0  0
   -0.3181   -2.9519    0.7312 O   0  0  0  0  0  0  0  0  0  0  0  0
   -1.0281   -0.9259    0.0662 N   0  0  0  0  0  0  0  0  0  0  0  0
   -1.8301   -0.3519   -0.1548 H   0  0  0  0  0  0  0  0  0  0  0  0
    0.2709   -0.2409    0.0912 C   0  0  1  0  0  0  0  0  0  0  0  0
    0.2015    0.6651   -0.5114 H   0  0  0  0  0  0  0  0  0  0  0  0
    0.6165    0.1710    1.5281 C   0  0  0  0  0  0  0  0  0  0  0  0
    1.5304    0.7673    1.5193 H   0  0  0  0  0  0  0  0  0  0  0  0
   -0.1942    0.7749    1.9395 H   0  0  0  0  0  0  0  0  0  0  0  0
    0.8236   -0.9670    2.3437 O   0  0  0  0  0  0  0  0  0  0  0  0
    1.2045   -0.6743    3.1786 H   0  0  0  0  0  0  0  0  0  0  0  0
    1.3648   -1.1346   -0.5165 C   0  0  0  0  0  0  0  0  0  0  0  0
    2.5526   -0.8680   -0.3302 O   0  0  0  0  0  0  0  0  0  0  0  0
    0.9738   -2.1965   -1.2293 N   0  0  0  0  0  0  0  0  0  0  0  0
   -0.0184   -2.2819   -1.4059 H   0  0  0  0  0  0  0  0  0  0  0  0
    1.8798   -3.1572   -1.8559 C   0  0  0  0  0  0  0  0  0  0  0  0
    2.6662   -3.4374   -1.1518 H   0  0  0  0  0  0  0  0  0  0  0  0
    1.3316   -4.0506   -2.1562 H   0  0  0  0  0  0  0  0  0  0  0  0
    2.3431   -2.7043   -2.7349 H   0  0  0  0  0  0  0  0  0  0  0  0
  5  6  2  0  0  0  0
  5  7  1  0  0  0  0
  2  3  1  0  0  0  0
  2  4  1  0  0  0  0
  2  5  1  0  0  0  0
  1  2  1  0  0  0  0
 16 17  2  0  0  0  0
 16 18  1  0  0  0  0
 14 15  1  0  0  0  0
 11 12  1  0  0  0  0
 11 13  1  0  0  0  0
 11 14  1  0  0  0  0
  9 10  1  0  0  0  0
  9 11  1  0  0  0  0
  9 16  1  0  0  0  0
  7  8  1  0  0  0  0
  7  9  1  0  0  0  0
 20 21  1  0  0  0  0
 20 22  1  0  0  0  0
 20 23  1  0  0  0  0
 18 19  1  0  0  0  0
 18 20  1  0  0  0  0
M  END
$$$$
default_name
  -OEChem-01062215323D

 23 22  0     1  0  0  0  0  0999 V2000
   -2.6721   -3.7279    0.7212 H   0  0  0  0  0  0  0  0  0  0  0  0
   -2.6561   -2.6819    0.4162 C   0  0  0  0  0  0  0  0  0  0  0  0
   -3.2401   -2.0889    1.1172 H   0  0  0  0  0  0  0  0  0  0  0  0
   -3.0671   -2.5859   -0.5858 H   0  0  0  0  0  0  0  0  0  0  0  0
   -1.2261   -2.1939    0.4202 C   0  0  0  0  0  0  0  0  0  0  0  0
   -0.3181   -2.9519    0.7312 O   0  0  0  0  0  0  0  0  0  0  0  0
   -1.0281   -0.9259    0.0662 N   0  0  0  0  0  0  0  0  0  0  0  0
   -1.8301   -0.3519   -0.1548 H   0  0  0  0  0  0  0  0  0  0  0  0
    0.2709   -0.2409    0.0912 C   0  0  1  0  0  0  0  0  0  0  0  0
    0.2015    0.6651   -0.5114 H   0  0  0  0  0  0  0  0  0  0  0  0
    0.6165    0.1710    1.5281 C   0  0  0  0  0  0  0  0  0  0  0  0
    1.5304    0.7673    1.5193 H   0  0  0  0  0  0  0  0  0  0  0  0
   -0.1942    0.7749    1.9395 H   0  0  0  0  0  0  0  0  0  0  0  0
    0.8236   -0.9670    2.3437 O   0  0  0  0  0  0  0  0  0  0  0  0
    1.2045   -0.6743    3.1786 H   0  0  0  0  0  0  0  0  0  0  0  0
    1.3648   -1.1346   -0.5165 C   0  0  0  0  0  0  0  0  0  0  0  0
    2.5263   -1.0451   -0.1171 O   0  0  0  0  0  0  0  0  0  0  0  0
    1.0008   -2.0014   -1.4677 N   0  0  0  0  0  0  0  0  0  0  0  0
    0.0460   -1.9383   -1.7953 H   0  0  0  0  0  0  0  0  0  0  0  0
    1.9071   -2.9353   -2.1331 C   0  0  0  0  0  0  0  0  0  0  0  0
    2.5428   -3.4249   -1.3922 H   0  0  0  0  0  0  0  0  0  0  0  0
    1.3374   -3.6919   -2.6734 H   0  0  0  0  0  0  0  0  0  0  0  0
    2.5432   -2.3916   -2.8346 H   0  0  0  0  0  0  0  0  0  0  0  0
  5  6  2  0  0  0  0
  5  7  1  0  0  0  0
  2  3  1  0  0  0  0
  2  4  1  0  0  0  0
  2  5  1  0  0  0  0
  1  2  1  0  0  0  0
 16 17  2  0  0  0  0
 16 18  1  0  0  0  0
 14 15  1  0  0  0  0
 11 12  1  0  0  0  0
 11 13  1  0  0  0  0
 11 14  1  0  0  0  0
  9 10  1  0  0  0  0
  9 11  1  0  0  0  0
  9 16  1  0  0  0  0
  7  8  1  0  0  0  0
  7  9  1  0  0  0  0
 20 21  1  0  0  0  0
 20 22  1  0  0  0  0
 20 23  1  0  0  0  0
 18 19  1  0  0  0  0
 18 20  1  0  0  0  0
M  END
$$$$
default_name
  -OEChem-01062215323D

 23 22  0     1  0  0  0  0  0999 V2000
   -2.6721   -3.7279    0.7212 H   0  0  0  0  0  0  0  0  0  0  0  0
   -2.6561   -2.6819    0.4162 C   0  0  0  0  0  0  0  0  0  0  0  0
   -3.2401   -2.0889    1.1172 H   0  0  0  0  0  0  0  0  0  0  0  0
   -3.0671   -2.5859   -0.5858 H   0  0  0  0  0  0  0  0  0  0  0  0
   -1.2261   -2.1939    0.4202 C   0  0  0  0  0  0  0  0  0  0  0  0
   -0.3181   -2.9519    0.7312 O   0  0  0  0  0  0  0  0  0  0  0  0
   -1.0281   -0.9259    0.0662 N   0  0  0  0  0  0  0  0  0  0  0  0
   -1.8301   -0.3519   -0.1548 H   0  0  0  0  0  0  0  0  0  0  0  0
    0.2709   -0.2409    0.0912 C   0  0  1  0  0  0  0  0  0  0  0  0
    0.2015    0.6651   -0.5114 H   0  0  0  0  0  0  0  0  0  0  0  0
    0.6165    0.1710    1.5281 C   0  0  0  0  0  0  0  0  0  0  0  0
    1.5304    0.7673    1.5193 H   0  0  0  0  0  0  0  0  0  0  0  0
   -0.1942    0.7749    1.9395 H   0  0  0  0  0  0  0  0  0  0  0  0
    0.8236   -0.9670    2.3437 O   0  0  0  0  0  0  0  0  0  0  0  0
    1.2045   -0.6743    3.1786 H   0  0  0  0  0  0  0  0  0  0  0  0
    1.3648   -1.1346   -0.5165 C   0  0  0  0  0  0  0  0  0  0  0  0
    2.4508   -1.2527    0.0522 O   0  0  0  0  0  0  0  0  0  0  0  0
    1.0827   -1.7718   -1.6580 N   0  0  0  0  0  0  0  0  0  0  0  0
    0.2020   -1.5413   -2.0985 H   0  0  0  0  0  0  0  0  0  0  0  0
    1.9978   -2.6728   -2.3558 C   0  0  0  0  0  0  0  0  0  0  0  0
    2.4611   -3.3559   -1.6407 H   0  0  0  0  0  0  0  0  0  0  0  0
    1.4574   -3.2508   -3.1061 H   0  0  0  0  0  0  0  0  0  0  0  0
    2.7834   -2.0917   -2.8432 H   0  0  0  0  0  0  0  0  0  0  0  0
  5  6  2  0  0  0  0
  5  7  1  0  0  0  0
  2  3  1  0  0  0  0
  2  4  1  0  0  0  0
  2  5  1  0  0  0  0
  1  2  1  0  0  0  0
 16 17  2  0  0  0  0
 16 18  1  0  0  0  0
 14 15  1  0  0  0  0
 11 12  1  0  0  0  0
 11 13  1  0  0  0  0
 11 14  1  0  0  0  0
  9 10  1  0  0  0  0
  9 11  1  0  0  0  0
  9 16  1  0  0  0  0
  7  8  1  0  0  0  0
  7  9  1  0  0  0  0
 20 21  1  0  0  0  0
 20 22  1  0  0  0  0
 20 23  1  0  0  0  0
 18 19  1  0  0  0  0
 18 20  1  0  0  0  0
M  END
$$$$
default_name
  -OEChem-01062215323D

 23 22  0     1  0  0  0  0  0999 V2000
   -2.6721   -3.7279    0.7212 H   0  0  0  0  0  0  0  0  0  0  0  0
   -2.6561   -2.6819    0.4162 C   0  0  0  0  0  0  0  0  0  0  0  0
   -3.2401   -2.0889    1.1172 H   0  0  0  0  0  0  0  0  0  0  0  0
   -3.0671   -2.5859   -0.5858 H   0  0  0  0  0  0  0  0  0  0  0  0
   -1.2261   -2.1939    0.4202 C   0  0  0  0  0  0  0  0  0  0  0  0
   -0.3181   -2.9519    0.7312 O   0  0  0  0  0  0  0  0  0  0  0  0
   -1.0281   -0.9259    0.0662 N   0  0  0  0  0  0  0  0  0  0  0  0
   -1.8301   -0.3519   -0.1548 H   0  0  0  0  0  0  0  0  0  0  0  0
    0.2709   -0.2409    0.0912 C   0  0  1  0  0  0  0  0  0  0  0  0
    0.2015    0.6651   -0.5114 H   0  0  0  0  0  0  0  0  0  0  0  0
    0.6165    0.1710    1.5281 C   0  0  0  0  0  0  0  0  0  0  0  0
    1.5304    0.7673    1.5193 H   0  0  0  0  0  0  0  0  0  0  0  0
   -0.1942    0.7749    1.9395 H   0  0  0  0  0  0  0  0  0  0  0  0
    0.8236   -0.9670    2.3437 O   0  0  0  0  0  0  0  0  0  0  0  0
    1.2045   -0.6743    3.1786 H   0  0  0  0  0  0  0  0  0  0  0  0
    1.3648   -1.1346   -0.5165 C   0  0  0  0  0  0  0  0  0  0  0  0
    2.3311   -1.4766    0.1662 O   0  0  0  0  0  0  0  0  0  0  0  0
    1.2139   -1.5234   -1.7872 N   0  0  0  0  0  0  0  0  0  0  0  0
    0.4388   -1.1179   -2.2949 H   0  0  0  0  0  0  0  0  0  0  0  0
    2.1458   -2.3876   -2.5090 C   0  0  0  0  0  0  0  0  0  0  0  0
    2.4266   -3.2352   -1.8804 H   0  0  0  0  0  0  0  0  0  0  0  0
    1.6835   -2.7574   -3.4248 H   0  0  0  0  0  0  0  0  0  0  0  0
    3.0474   -1.8251   -2.7602 H   0  0  0  0  0  0  0  0  0  0  0  0
  5  6  2  0  0  0  0
  5  7  1  0  0  0  0
  2  3  1  0  0  0  0
  2  4  1  0  0  0  0
  2  5  1  0  0  0  0
  1  2  1  0  0  0  0
 16 17  2  0  0  0  0
 16 18  1  0  0  0  0
 14 15  1  0  0  0  0
 11 12  1  0  0  0  0
 11 13  1  0  0  0  0
 11 14  1  0  0  0  0
  9 10  1  0  0  0  0
  9 11  1  0  0  0  0
  9 16  1  0  0  0  0
  7  8  1  0  0  0  0
  7  9  1  0  0  0  0
 20 21  1  0  0  0  0
 20 22  1  0  0  0  0
 20 23  1  0  0  0  0
 18 19  1  0  0  0  0
 18 20  1  0  0  0  0
M  END
$$$$
default_name
  -OEChem-01062215323D

 23 22  0     1  0  0  0  0  0999 V2000
   -2.6721   -3.7279    0.7212 H   0  0  0  0  0  0  0  0  0  0  0  0
   -2.6561   -2.6819    0.4162 C   0  0  0  0  0  0  0  0  0  0  0  0
   -3.2401   -2.0889    1.1172 H   0  0  0  0  0  0  0  0  0  0  0  0
   -3.0671   -2.5859   -0.5858 H   0  0  0  0  0  0  0  0  0  0  0  0
   -1.2261   -2.1939    0.4202 C   0  0  0  0  0  0  0  0  0  0  0  0
   -0.3181   -2.9519    0.7312 O   0  0  0  0  0  0  0  0  0  0  0  0
   -1.0281   -0.9259    0.0662 N   0  0  0  0  0  0  0  0  0  0  0  0
   -1.8301   -0.3519   -0.1548 H   0  0  0  0  0  0  0  0  0  0  0  0
    0.2709   -0.2409    0.0912 C   0  0  1  0  0  0  0  0  0  0  0  0
    0.2015    0.6651   -0.5114 H   0  0  0  0  0  0  0  0  0  0  0  0
    0.6165    0.1710    1.5281 C   0  0  0  0  0  0  0  0  0  0  0  0
    1.5304    0.7673    1.5193 H   0  0  0  0  0  0  0  0  0  0  0  0
   -0.1942    0.7749    1.9395 H   0  0  0  0  0  0  0  0  0  0  0  0
    0.8236   -0.9670    2.3437 O   0  0  0  0  0  0  0  0  0  0  0  0
    1.2045   -0.6743    3.1786 H   0  0  0  0  0  0  0  0  0  0  0  0
    1.3648   -1.1346   -0.5165 C   0  0  0  0  0  0  0  0  0  0  0  0
    2.1754   -1.7017    0.2170 O   0  0  0  0  0  0  0  0  0  0  0  0
    1.3854   -1.2731   -1.8466 N   0  0  0  0  0  0  0  0  0  0  0  0
    0.7404   -0.6970   -2.3709 H   0  0  0  0  0  0  0  0  0  0  0  0
    2.3409   -2.0989   -2.5822 C   0  0  0  0  0  0  0  0  0  0  0  0
    2.4417   -3.0710   -2.0948 H   0  0  0  0  0  0  0  0  0  0  0  0
    2.0004   -2.2452   -3.6077 H   0  0  0  0  0  0  0  0  0  0  0  0
    3.3172   -1.6098   -2.5912 H   0  0  0  0  0  0  0  0  0  0  0  0
  5  6  2  0  0  0  0
  5  7  1  0  0  0  0
  2  3  1  0  0  0  0
  2  4  1  0  0  0  0
  2  5  1  0  0  0  0
  1  2  1  0  0  0  0
 16 17  2  0  0  0  0
 16 18  1  0  0  0  0
 14 15  1  0  0  0  0
 11 12  1  0  0  0  0
 11 13  1  0  0  0  0
 11 14  1  0  0  0  0
  9 10  1  0  0  0  0
  9 11  1  0  0  0  0
  9 16  1  0  0  0  0
  7  8  1  0  0  0  0
  7  9  1  0  0  0  0
 20 21  1  0  0  0  0
 20 22  1  0  0  0  0
 20 23  1  0  0  0  0
 18 19  1  0  0  0  0
 18 20  1  0  0  0  0
M  END
$$$$
default_name
  -OEChem-01062215323D

 23 22  0     1  0  0  0  0  0999 V2000
   -2.6721   -3.7279    0.7212 H   0  0  0  0  0  0  0  0  0  0  0  0
   -2.6561   -2.6819    0.4162 C   0  0  0  0  0  0  0  0  0  0  0  0
   -3.2401   -2.0889    1.1172 H   0  0  0  0  0  0  0  0  0  0  0  0
   -3.0671   -2.5859   -0.5858 H   0  0  0  0  0  0  0  0  0  0  0  0
   -1.2261   -2.1939    0.4202 C   0  0  0  0  0  0  0  0  0  0  0  0
   -0.3181   -2.9519    0.7312 O   0  0  0  0  0  0  0  0  0  0  0  0
   -1.0281   -0.9259    0.0662 N   0  0  0  0  0  0  0  0  0  0  0  0
   -1.8301   -0.3519   -0.1548 H   0  0  0  0  0  0  0  0  0  0  0  0
    0.2709   -0.2409    0.0912 C   0  0  1  0  0  0  0  0  0  0  0  0
    0.2015    0.6651   -0.5114 H   0  0  0  0  0  0  0  0  0  0  0  0
    0.6165    0.1710    1.5281 C   0  0  0  0  0  0  0  0  0  0  0  0
    1.5304    0.7673    1.5193 H   0  0  0  0  0  0  0  0  0  0  0  0
   -0.1942    0.7749    1.9395 H   0  0  0  0  0  0  0  0  0  0  0  0
    0.8236   -0.9670    2.3437 O   0  0  0  0  0  0  0  0  0  0  0  0
    1.2045   -0.6743    3.1786 H   0  0  0  0  0  0  0  0  0  0  0  0
    1.3648   -1.1346   -0.5165 C   0  0  0  0  0  0  0  0  0  0  0  0
    1.9944   -1.9126    0.2012 O   0  0  0  0  0  0  0  0  0  0  0  0
    1.5857   -1.0379   -1.8320 N   0  0  0  0  0  0  0  0  0  0  0  0
    1.0862   -0.3073   -2.3216 H   0  0  0  0  0  0  0  0  0  0  0  0
    2.5700   -1.8266   -2.5704 C   0  0  0  0  0  0  0  0  0  0  0  0
    2.5053   -2.8744   -2.2694 H   0  0  0  0  0  0  0  0  0  0  0  0
    2.3864   -1.7491   -3.6425 H   0  0  0  0  0  0  0  0  0  0  0  0
    3.5744   -1.4605   -2.3478 H   0  0  0  0  0  0  0  0  0  0  0  0
  5  6  2  0  0  0  0
  5  7  1  0  0  0  0
  2  3  1  0  0  0  0
  2  4  1  0  0  0  0
  2  5  1  0  0  0  0
  1  2  1  0  0  0  0
 16 17  2  0  0  0  0
 16 18  1  0  0  0  0
 14 15  1  0  0  0  0
 11 12  1  0  0  0  0
 11 13  1  0  0  0  0
 11 14  1  0  0  0  0
  9 10  1  0  0  0  0
  9 11  1  0  0  0  0
  9 16  1  0  0  0  0
  7  8  1  0  0  0  0
  7  9  1  0  0  0  0
 20 21  1  0  0  0  0
 20 22  1  0  0  0  0
 20 23  1  0  0  0  0
 18 19  1  0  0  0  0
 18 20  1  0  0  0  0
M  END
$$$$
default_name
  -OEChem-01062215323D

 23 22  0     1  0  0  0  0  0999 V2000
   -2.6721   -3.7279    0.7212 H   0  0  0  0  0  0  0  0  0  0  0  0
   -2.6561   -2.6819    0.4162 C   0  0  0  0  0  0  0  0  0  0  0  0
   -3.2401   -2.0889    1.1172 H   0  0  0  0  0  0  0  0  0  0  0  0
   -3.0671   -2.5859   -0.5858 H   0  0  0  0  0  0  0  0  0  0  0  0
   -1.2261   -2.1939    0.4202 C   0  0  0  0  0  0  0  0  0  0  0  0
   -0.3181   -2.9519    0.7312 O   0  0  0  0  0  0  0  0  0  0  0  0
   -1.0281   -0.9259    0.0662 N   0  0  0  0  0  0  0  0  0  0  0  0
   -1.8301   -0.3519   -0.1548 H   0  0  0  0  0  0  0  0  0  0  0  0
    0.2709   -0.2409    0.0912 C   0  0  1  0  0  0  0  0  0  0  0  0
    0.2015    0.6651   -0.5114 H   0  0  0  0  0  0  0  0  0  0  0  0
    0.6165    0.1710    1.5281 C   0  0  0  0  0  0  0  0  0  0  0  0
    1.5304    0.7673    1.5193 H   0  0  0  0  0  0  0  0  0  0  0  0
   -0.1942    0.7749    1.9395 H   0  0  0  0  0  0  0  0  0  0  0  0
    0.8236   -0.9670    2.3437 O   0  0  0  0  0  0  0  0  0  0  0  0
    1.2045   -0.6743    3.1786 H   0  0  0  0  0  0  0  0  0  0  0  0
    1.3648   -1.1346   -0.5165 C   0  0  0  0  0  0  0  0  0  0  0  0
    1.8003   -2.0948    0.1199 O   0  0  0  0  0  0  0  0  0  0  0  0
    1.8010   -0.8339   -1.7445 N   0  0  0  0  0  0  0  0  0  0  0  0
    1.4527    0.0246   -2.1501 H   0  0  0  0  0  0  0  0  0  0  0  0
    2.8173   -1.5891   -2.4745 C   0  0  0  0  0  0  0  0  0  0  0  0
    2.6132   -2.6588   -2.3923 H   0  0  0  0  0  0  0  0  0  0  0  0
    2.8151   -1.3031   -3.5266 H   0  0  0  0  0  0  0  0  0  0  0  0
    3.8014   -1.3874   -2.0465 H   0  0  0  0  0  0  0  0  0  0  0  0
  5  6  2  0  0  0  0
  5  7  1  0  0  0  0
  2  3  1  0  0  0  0
  2  4  1  0  0  0  0
  2  5  1  0  0  0  0
  1  2  1  0  0  0  0
 16 17  2  0  0  0  0
 16 18  1  0  0  0  0
 14 15  1  0  0  0  0
 11 12  1  0  0  0  0
 11 13  1  0  0  0  0
 11 14  1  0  0  0  0
  9 10  1  0  0  0  0
  9 11  1  0  0  0  0
  9 16  1  0  0  0  0
  7  8  1  0  0  0  0
  7  9  1  0  0  0  0
 20 21  1  0  0  0  0
 20 22  1  0  0  0  0
 20 23  1  0  0  0  0
 18 19  1  0  0  0  0
 18 20  1  0  0  0  0
M  END
$$$$
default_name
  -OEChem-01062215323D

 23 22  0     1  0  0  0  0  0999 V2000
   -2.6721   -3.7279    0.7212 H   0  0  0  0  0  0  0  0  0  0  0  0
   -2.6561   -2.6819    0.4162 C   0  0  0  0  0  0  0  0  0  0  0  0
   -3.2401   -2.0889    1.1172 H   0  0  0  0  0  0  0  0  0  0  0  0
   -3.0671   -2.5859   -0.5858 H   0  0  0  0  0  0  0  0  0  0  0  0
   -1.2261   -2.1939    0.4202 C   0  0  0  0  0  0  0  0  0  0  0  0
   -0.3181   -2.9519    0.7312 O   0  0  0  0  0  0  0  0  0  0  0  0
   -1.0281   -0.9259    0.0662 N   0  0  0  0  0  0  0  0  0  0  0  0
   -1.8301   -0.3519   -0.1548 H   0  0  0  0  0  0  0  0  0  0  0  0
    0.2709   -0.2409    0.0912 C   0  0  1  0  0  0  0  0  0  0  0  0
    0.2015    0.6651   -0.5114 H   0  0  0  0  0  0  0  0  0  0  0  0
    0.6165    0.1710    1.5281 C   0  0  0  0  0  0  0  0  0  0  0  0
    1.5304    0.7673    1.5193 H   0  0  0  0  0  0  0  0  0  0  0  0
   -0.1942    0.7749    1.9395 H   0  0  0  0  0  0  0  0  0  0  0  0
    0.8236   -0.9670    2.3437 O   0  0  0  0  0  0  0  0  0  0  0  0
    1.2045   -0.6743    3.1786 H   0  0  0  0  0  0  0  0  0  0  0  0
    1.3648   -1.1346   -0.5165 C   0  0  0  0  0  0  0  0  0  0  0  0
    1.6065   -2.2360   -0.0213 O   0  0  0  0  0  0  0  0  0  0  0  0
    2.0166   -0.6749   -1.5900 N   0  0  0  0  0  0  0  0  0  0  0  0
    1.8148    0.2762   -1.8683 H   0  0  0  0  0  0  0  0  0  0  0  0
    3.0660   -1.4028   -2.3008 C   0  0  0  0  0  0  0  0  0  0  0  0
    2.7579   -2.4391   -2.4550 H   0  0  0  0  0  0  0  0  0  0  0  0
    3.2575   -0.9374   -3.2681 H   0  0  0  0  0  0  0  0  0  0  0  0
    3.9829   -1.3956   -1.7078 H   0  0  0  0  0  0  0  0  0  0  0  0
  5  6  2  0  0  0  0
  5  7  1  0  0  0  0
  2  3  1  0  0  0  0
  2  4  1  0  0  0  0
  2  5  1  0  0  0  0
  1  2  1  0  0  0  0
 16 17  2  0  0  0  0
 16 18  1  0  0  0  0
 14 15  1  0  0  0  0
 11 12  1  0  0  0  0
 11 13  1  0  0  0  0
 11 14  1  0  0  0  0
  9 10  1  0  0  0  0
  9 11  1  0  0  0  0
  9 16  1  0  0  0  0
  7  8  1  0  0  0  0
  7  9  1  0  0  0  0
 20 21  1  0  0  0  0
 20 22  1  0  0  0  0
 20 23  1  0  0  0  0
 18 19  1  0  0  0  0
 18 20  1  0  0  0  0
M  END
$$$$
default_name
  -OEChem-01062215323D

 23 22  0     1  0  0  0  0  0999 V2000
   -2.6721   -3.7279    0.7212 H   0  0  0  0  0  0  0  0  0  0  0  0
   -2.6561   -2.6819    0.4162 C   0  0  0  0  0  0  0  0  0  0  0  0
   -3.2401   -2.0889    1.1172 H   0  0  0  0  0  0  0  0  0  0  0  0
   -3.0671   -2.5859   -0.5858 H   0  0  0  0  0  0  0  0  0  0  0  0
   -1.2261   -2.1939    0.4202 C   0  0  0  0  0  0  0  0  0  0  0  0
   -0.3181   -2.9519    0.7312 O   0  0  0  0  0  0  0  0  0  0  0  0
   -1.0281   -0.9259    0.0662 N   0  0  0  0  0  0  0  0  0  0  0  0
   -1.8301   -0.3519   -0.1548 H   0  0  0  0  0  0  0  0  0  0  0  0
    0.2709   -0.2409    0.0912 C   0  0  1  0  0  0  0  0  0  0  0  0
    0.2015    0.6651   -0.5114 H   0  0  0  0  0  0  0  0  0  0  0  0
    0.6165    0.1710    1.5281 C   0  0  0  0  0  0  0  0  0  0  0  0
    1.5304    0.7673    1.5193 H   0  0  0  0  0  0  0  0  0  0  0  0
   -0.1942    0.7749    1.9395 H   0  0  0  0  0  0  0  0  0  0  0  0
    0.8236   -0.9670    2.3437 O   0  0  0  0  0  0  0  0  0  0  0  0
    1.2045   -0.6743    3.1786 H   0  0  0  0  0  0  0  0  0  0  0  0
    1.3648   -1.1346   -0.5165 C   0  0  0  0  0  0  0  0  0  0  0  0
    1.4260   -2.3266   -0.2129 O   0  0  0  0  0  0  0  0  0  0  0  0
    2.2180   -0.5719   -1.3791 N   0  0  0  0  0  0  0  0  0  0  0  0
    2.1480    0.4303   -1.4952 H   0  0  0  0  0  0  0  0  0  0  0  0
    3.2992   -1.2801   -2.0614 C   0  0  0  0  0  0  0  0  0  0  0  0
    2.9295   -2.2300   -2.4535 H   0  0  0  0  0  0  0  0  0  0  0  0
    3.6833   -0.6770   -2.8846 H   0  0  0  0  0  0  0  0  0  0  0  0
    4.1065   -1.4843   -1.3549 H   0  0  0  0  0  0  0  0  0  0  0  0
  5  6  2  0  0  0  0
  5  7  1  0  0  0  0
  2  3  1  0  0  0  0
  2  4  1  0  0  0  0
  2  5  1  0  0  0  0
  1  2  1  0  0  0  0
 16 17  2  0  0  0  0
 16 18  1  0  0  0  0
 14 15  1  0  0  0  0
 11 12  1  0  0  0  0
 11 13  1  0  0  0  0
 11 14  1  0  0  0  0
  9 10  1  0  0  0  0
  9 11  1  0  0  0  0
  9 16  1  0  0  0  0
  7  8  1  0  0  0  0
  7  9  1  0  0  0  0
 20 21  1  0  0  0  0
 20 22  1  0  0  0  0
 20 23  1  0  0  0  0
 18 19  1  0  0  0  0
 18 20  1  0  0  0  0
M  END
$$$$
default_name
  -OEChem-01062215323D

 23 22  0     1  0  0  0  0  0999 V2000
   -2.6721   -3.7279    0.7212 H   0  0  0  0  0  0  0  0  0  0  0  0
   -2.6561   -2.6819    0.4162 C   0  0  0  0  0  0  0  0  0  0  0  0
   -3.2401   -2.0889    1.1172 H   0  0  0  0  0  0  0  0  0  0  0  0
   -3.0671   -2.5859   -0.5858 H   0  0  0  0  0  0  0  0  0  0  0  0
   -1.2261   -2.1939    0.4202 C   0  0  0  0  0  0  0  0  0  0  0  0
   -0.3181   -2.9519    0.7312 O   0  0  0  0  0  0  0  0  0  0  0  0
   -1.0281   -0.9259    0.0662 N   0  0  0  0  0  0  0  0  0  0  0  0
   -1.8301   -0.3519   -0.1548 H   0  0  0  0  0  0  0  0  0  0  0  0
    0.2709   -0.2409    0.0912 C   0  0  1  0  0  0  0  0  0  0  0  0
    0.2015    0.6651   -0.5114 H   0  0  0  0  0  0  0  0  0  0  0  0
    0.6165    0.1710    1.5281 C   0  0  0  0  0  0  0  0  0  0  0  0
    1.5304    0.7673    1.5193 H   0  0  0  0  0  0  0  0  0  0  0  0
   -0.1942    0.7749    1.9395 H   0  0  0  0  0  0  0  0  0  0  0  0
    0.8236   -0.9670    2.3437 O   0  0  0  0  0  0  0  0  0  0  0  0
    1.2045   -0.6743    3.1786 H   0  0  0  0  0  0  0  0  0  0  0  0
    1.3648   -1.1346   -0.5165 C   0  0  0  0  0  0  0  0  0  0  0  0
    1.2713   -2.3604   -0.4418 O   0  0  0  0  0  0  0  0  0  0  0  0
    2.3912   -0.5318   -1.1261 N   0  0  0  0  0  0  0  0  0  0  0  0
    2.4294    0.4764   -1.0564 H   0  0  0  0  0  0  0  0  0  0  0  0
    3.5010   -1.2296   -1.7724 C   0  0  0  0  0  0  0  0  0  0  0  0
    3.1165   -2.0459   -2.3876 H   0  0  0  0  0  0  0  0  0  0  0  0
    4.0635   -0.5397   -2.4021 H   0  0  0  0  0  0  0  0  0  0  0  0
    4.1636   -1.6477   -1.0118 H   0  0  0  0  0  0  0  0  0  0  0  0
  5  6  2  0  0  0  0
  5  7  1  0  0  0  0
  2  3  1  0  0  0  0
  2  4  1  0  0  0  0
  2  5  1  0  0  0  0
  1  2  1  0  0  0  0
 16 17  2  0  0  0  0
 16 18  1  0  0  0  0
 14 15  1  0  0  0  0
 11 12  1  0  0  0  0
 11 13  1  0  0  0  0
 11 14  1  0  0  0  0
  9 10  1  0  0  0  0
  9 11  1  0  0  0  0
  9 16  1  0  0  0  0
  7  8  1  0  0  0  0
  7  9  1  0  0  0  0
 20 21  1  0  0  0  0
 20 22  1  0  0  0  0
 20 23  1  0  0  0  0
 18 19  1  0  0  0  0
 18 20  1  0  0  0  0
M  END
$$$$
default_name
  -OEChem-01062215323D

 23 22  0     1  0  0  0  0  0999 V2000
   -2.6721   -3.7279    0.7212 H   0  0  0  0  0  0  0  0  0  0  0  0
   -2.6561   -2.6819    0.4162 C   0  0  0  0  0  0  0  0  0  0  0  0
   -3.2401   -2.0889    1.1172 H   0  0  0  0  0  0  0  0  0  0  0  0
   -3.0671   -2.5859   -0.5858 H   0  0  0  0  0  0  0  0  0  0  0  0
   -1.2261   -2.1939    0.4202 C   0  0  0  0  0  0  0  0  0  0  0  0
   -0.3181   -2.9519    0.7312 O   0  0  0  0  0  0  0  0  0  0  0  0
   -1.0281   -0.9259    0.0662 N   0  0  0  0  0  0  0  0  0  0  0  0
   -1.8301   -0.3519   -0.1548 H   0  0  0  0  0  0  0  0  0  0  0  0
    0.2709   -0.2409    0.0912 C   0  0  1  0  0  0  0  0  0  0  0  0
    0.2015    0.6651   -0.5114 H   0  0  0  0  0  0  0  0  0  0  0  0
    0.6165    0.1710    1.5281 C   0  0  0  0  0  0  0  0  0  0  0  0
    1.5304    0.7673    1.5193 H   0  0  0  0  0  0  0  0  0  0  0  0
   -0.1942    0.7749    1.9395 H   0  0  0  0  0  0  0  0  0  0  0  0
    0.8236   -0.9670    2.3437 O   0  0  0  0  0  0  0  0  0  0  0  0
    1.2045   -0.6743    3.1786 H   0  0  0  0  0  0  0  0  0  0  0  0
    1.3648   -1.1346   -0.5165 C   0  0  0  0  0  0  0  0  0  0  0  0
    1.1528   -2.3350   -0.6924 O   0  0  0  0  0  0  0  0  0  0  0  0
    2.5247   -0.5574   -0.8483 N   0  0  0  0  0  0  0  0  0  0  0  0
    2.6399    0.4113   -0.5817 H   0  0  0  0  0  0  0  0  0  0  0  0
    3.6576   -1.2547   -1.4537 C   0  0  0  0  0  0  0  0  0  0  0  0
    3.3061   -1.8993   -2.2620 H   0  0  0  0  0  0  0  0  0  0  0  0
    4.3723   -0.5348   -1.8536 H   0  0  0  0  0  0  0  0  0  0  0  0
    4.1505   -1.8745   -0.7018 H   0  0  0  0  0  0  0  0  0  0  0  0
  5  6  2  0  0  0  0
  5  7  1  0  0  0  0
  2  3  1  0  0  0  0
  2  4  1  0  0  0  0
  2  5  1  0  0  0  0
  1  2  1  0  0  0  0
 16 17  2  0  0  0  0
 16 18  1  0  0  0  0
 14 15  1  0  0  0  0
 11 12  1  0  0  0  0
 11 13  1  0  0  0  0
 11 14  1  0  0  0  0
  9 10  1  0  0  0  0
  9 11  1  0  0  0  0
  9 16  1  0  0  0  0
  7  8  1  0  0  0  0
  7  9  1  0  0  0  0
 20 21  1  0  0  0  0
 20 22  1  0  0  0  0
 20 23  1  0  0  0  0
 18 19  1  0  0  0  0
 18 20  1  0  0  0  0
M  END
$$$$
default_name
  -OEChem-01062215323D

 23 22  0     1  0  0  0  0  0999 V2000
   -2.6721   -3.7279    0.7212 H   0  0  0  0  0  0  0  0  0  0  0  0
   -2.6561   -2.6819    0.4162 C   0  0  0  0  0  0  0  0  0  0  0  0
   -3.2401   -2.0889    1.1172 H   0  0  0  0  0  0  0  0  0  0  0  0
   -3.0671   -2.5859   -0.5858 H   0  0  0  0  0  0  0  0  0  0  0  0
   -1.2261   -2.1939    0.4202 C   0  0  0  0  0  0  0  0  0  0  0  0
   -0.3181   -2.9519    0.7312 O   0  0  0  0  0  0  0  0  0  0  0  0
   -1.0281   -0.9259    0.0662 N   0  0  0  0  0  0  0  0  0  0  0  0
   -1.8301   -0.3519   -0.1548 H   0  0  0  0  0  0  0  0  0  0  0  0
    0.2709   -0.2409    0.0912 C   0  0  1  0  0  0  0  0  0  0  0  0
    0.1378    0.7774   -0.2749 H   0  0  0  0  0  0  0  0  0  0  0  0
    0.7921   -0.1621    1.5320 C   0  0  0  0  0  0  0  0  0  0  0  0
    1.7039    0.4372    1.5503 H   0  0  0  0  0  0  0  0  0  0  0  0
    0.0431    0.3167    2.1652 H   0  0  0  0  0  0  0  0  0  0  0  0
    1.0855   -1.4525    2.0341 O   0  0  0  0  0  0  0  0  0  0  0  0
    1.5677   -1.3514    2.8619 H   0  0  0  0  0  0  0  0  0  0  0  0
    1.2744   -0.9517   -0.8321 C   0  0  0  0  0  0  0  0  0  0  0  0
    0.9273   -1.9462   -1.4702 O   0  0  0  0  0  0  0  0  0  0  0  0
    2.5084   -0.4430   -0.9164 N   0  0  0  0  0  0  0  0  0  0  0  0
    2.7278    0.3173   -0.2866 H   0  0  0  0  0  0  0  0  0  0  0  0
    3.5741   -0.9811   -1.7595 C   0  0  0  0  0  0  0  0  0  0  0  0
    3.1825   -1.2018   -2.7548 H   0  0  0  0  0  0  0  0  0  0  0  0
    4.3866   -0.2590   -1.8455 H   0  0  0  0  0  0  0  0  0  0  0  0
    3.9563   -1.9055   -1.3216 H   0  0  0  0  0  0  0  0  0  0  0  0
  5  6  2  0  0  0  0
  5  7  1  0  0  0  0
  2  3  1  0  0  0  0
  2  4  1  0  0  0  0
  2  5  1  0  0  0  0
  1  2  1  0  0  0  0
 16 17  2  0  0  0  0
 16 18  1  0  0  0  0
 14 15  1  0  0  0  0
 11 12  1  0  0  0  0
 11 13  1  0  0  0  0
 11 14  1  0  0  0  0
  9 10  1  0  0  0  0
  9 11  1  0  0  0  0
  9 16  1  0  0  0  0
  7  8  1  0  0  0  0
  7  9  1  0  0  0  0
 20 21  1  0  0  0  0
 20 22  1  0  0  0  0
 20 23  1  0  0  0  0
 18 19  1  0  0  0  0
 18 20  1  0  0  0  0
M  END
$$$$
default_name
  -OEChem-01062215323D

 23 22  0     1  0  0  0  0  0999 V2000
   -2.6721   -3.7279    0.7212 H   0  0  0  0  0  0  0  0  0  0  0  0
   -2.6561   -2.6819    0.4162 C   0  0  0  0  0  0  0  0  0  0  0  0
   -3.2401   -2.0889    1.1172 H   0  0  0  0  0  0  0  0  0  0  0  0
   -3.0671   -2.5859   -0.5858 H   0  0  0  0  0  0  0  0  0  0  0  0
   -1.2261   -2.1939    0.4202 C   0  0  0  0  0  0  0  0  0  0  0  0
   -0.3181   -2.9519    0.7312 O   0  0  0  0  0  0  0  0  0  0  0  0
   -1.0281   -0.9259    0.0662 N   0  0  0  0  0  0  0  0  0  0  0  0
   -1.8301   -0.3519   -0.1548 H   0  0  0  0  0  0  0  0  0  0  0  0
    0.2709   -0.2409    0.0912 C   0  0  1  0  0  0  0  0  0  0  0  0
    0.1378    0.7774   -0.2749 H   0  0  0  0  0  0  0  0  0  0  0  0
    0.7921   -0.1621    1.5320 C   0  0  0  0  0  0  0  0  0  0  0  0
    1.7039    0.4372    1.5503 H   0  0  0  0  0  0  0  0  0  0  0  0
    0.0431    0.3167    2.1652 H   0  0  0  0  0  0  0  0  0  0  0  0
    1.0855   -1.4525    2.0341 O   0  0  0  0  0  0  0  0  0  0  0  0
    1.5677   -1.3514    2.8619 H   0  0  0  0  0  0  0  0  0  0  0  0
    1.2744   -0.9517   -0.8321 C   0  0  0  0  0  0  0  0  0  0  0  0
    0.8747   -1.7603   -1.6706 O   0  0  0  0  0  0  0  0  0  0  0  0
    2.5692   -0.6477   -0.6927 N   0  0  0  0  0  0  0  0  0  0  0  0
    2.8109   -0.0445    0.0823 H   0  0  0  0  0  0  0  0  0  0  0  0
    3.6482   -1.2134   -1.5001 C   0  0  0  0  0  0  0  0  0  0  0  0
    3.3645   -1.2047   -2.5547 H   0  0  0  0  0  0  0  0  0  0  0  0
    4.5610   -0.6316   -1.3691 H   0  0  0  0  0  0  0  0  0  0  0  0
    3.8305   -2.2463   -1.1960 H   0  0  0  0  0  0  0  0  0  0  0  0
  5  6  2  0  0  0  0
  5  7  1  0  0  0  0
  2  3  1  0  0  0  0
  2  4  1  0  0  0  0
  2  5  1  0  0  0  0
  1  2  1  0  0  0  0
 16 17  2  0  0  0  0
 16 18  1  0  0  0  0
 14 15  1  0  0  0  0
 11 12  1  0  0  0  0
 11 13  1  0  0  0  0
 11 14  1  0  0  0  0
  9 10  1  0  0  0  0
  9 11  1  0  0  0  0
  9 16  1  0  0  0  0
  7  8  1  0  0  0  0
  7  9  1  0  0  0  0
 20 21  1  0  0  0  0
 20 22  1  0  0  0  0
 20 23  1  0  0  0  0
 18 19  1  0  0  0  0
 18 20  1  0  0  0  0
M  END
$$$$
default_name
  -OEChem-01062215323D

 23 22  0     1  0  0  0  0  0999 V2000
   -2.6721   -3.7279    0.7212 H   0  0  0  0  0  0  0  0  0  0  0  0
   -2.6561   -2.6819    0.4162 C   0  0  0  0  0  0  0  0  0  0  0  0
   -3.2401   -2.0889    1.1172 H   0  0  0  0  0  0  0  0  0  0  0  0
   -3.0671   -2.5859   -0.5858 H   0  0  0  0  0  0  0  0  0  0  0  0
   -1.2261   -2.1939    0.4202 C   0  0  0  0  0  0  0  0  0  0  0  0
   -0.3181   -2.9519    0.7312 O   0  0  0  0  0  0  0  0  0  0  0  0
   -1.0281   -0.9259    0.0662 N   0  0  0  0  0  0  0  0  0  0  0  0
   -1.8301   -0.3519   -0.1548 H   0  0  0  0  0  0  0  0  0  0  0  0
    0.2709   -0.2409    0.0912 C   0  0  1  0  0  0  0  0  0  0  0  0
    0.1378    0.7774   -0.2749 H   0  0  0  0  0  0  0  0  0  0  0  0
    0.7921   -0.1621    1.5320 C   0  0  0  0  0  0  0  0  0  0  0  0
    1.7039    0.4372    1.5503 H   0  0  0  0  0  0  0  0  0  0  0  0
    0.0431    0.3167    2.1652 H   0  0  0  0  0  0  0  0  0  0  0  0
    1.0855   -1.4525    2.0341 O   0  0  0  0  0  0  0  0  0  0  0  0
    1.5677   -1.3514    2.8619 H   0  0  0  0  0  0  0  0  0  0  0  0
    1.2744   -0.9517   -0.8321 C   0  0  0  0  0  0  0  0  0  0  0  0
    0.8766   -1.5387   -1.8390 O   0  0  0  0  0  0  0  0  0  0  0  0
    2.5695   -0.8926   -0.5039 N   0  0  0  0  0  0  0  0  0  0  0  0
    2.7909   -0.4692    0.3875 H   0  0  0  0  0  0  0  0  0  0  0  0
    3.6526   -1.4932   -1.2800 C   0  0  0  0  0  0  0  0  0  0  0  0
    3.5160   -1.2695   -2.3402 H   0  0  0  0  0  0  0  0  0  0  0  0
    4.6145   -1.0991   -0.9510 H   0  0  0  0  0  0  0  0  0  0  0  0
    3.6410   -2.5770   -1.1473 H   0  0  0  0  0  0  0  0  0  0  0  0
  5  6  2  0  0  0  0
  5  7  1  0  0  0  0
  2  3  1  0  0  0  0
  2  4  1  0  0  0  0
  2  5  1  0  0  0  0
  1  2  1  0  0  0  0
 16 17  2  0  0  0  0
 16 18  1  0  0  0  0
 14 15  1  0  0  0  0
 11 12  1  0  0  0  0
 11 13  1  0  0  0  0
 11 14  1  0  0  0  0
  9 10  1  0  0  0  0
  9 11  1  0  0  0  0
  9 16  1  0  0  0  0
  7  8  1  0  0  0  0
  7  9  1  0  0  0  0
 20 21  1  0  0  0  0
 20 22  1  0  0  0  0
 20 23  1  0  0  0  0
 18 19  1  0  0  0  0
 18 20  1  0  0  0  0
M  END
$$$$
default_name
  -OEChem-01062215323D

 23 22  0     1  0  0  0  0  0999 V2000
   -2.6721   -3.7279    0.7212 H   0  0  0  0  0  0  0  0  0  0  0  0
   -2.6561   -2.6819    0.4162 C   0  0  0  0  0  0  0  0  0  0  0  0
   -3.2401   -2.0889    1.1172 H   0  0  0  0  0  0  0  0  0  0  0  0
   -3.0671   -2.5859   -0.5858 H   0  0  0  0  0  0  0  0  0  0  0  0
   -1.2261   -2.1939    0.4202 C   0  0  0  0  0  0  0  0  0  0  0  0
   -0.3181   -2.9519    0.7312 O   0  0  0  0  0  0  0  0  0  0  0  0
   -1.0281   -0.9259    0.0662 N   0  0  0  0  0  0  0  0  0  0  0  0
   -1.8301   -0.3519   -0.1548 H   0  0  0  0  0  0  0  0  0  0  0  0
    0.2709   -0.2409    0.0912 C   0  0  1  0  0  0  0  0  0  0  0  0
    0.1378    0.7774   -0.2749 H   0  0  0  0  0  0  0  0  0  0  0  0
    0.7921   -0.1621    1.5320 C   0  0  0  0  0  0  0  0  0  0  0  0
    1.7039    0.4372    1.5503 H   0  0  0  0  0  0  0  0  0  0  0  0
    0.0431    0.3167    2.1652 H   0  0  0  0  0  0  0  0  0  0  0  0
    1.0855   -1.4525    2.0341 O   0  0  0  0  0  0  0  0  0  0  0  0
    1.5677   -1.3514    2.8619 H   0  0  0  0  0  0  0  0  0  0  0  0
    1.2744   -0.9517   -0.8321 C   0  0  0  0  0  0  0  0  0  0  0  0
    0.9331   -1.2966   -1.9641 O   0  0  0  0  0  0  0  0  0  0  0  0
    2.5091   -1.1611   -0.3629 N   0  0  0  0  0  0  0  0  0  0  0  0
    2.6691   -0.9278    0.6082 H   0  0  0  0  0  0  0  0  0  0  0  0
    3.5870   -1.8013   -1.1140 C   0  0  0  0  0  0  0  0  0  0  0  0
    3.6266   -1.3920   -2.1257 H   0  0  0  0  0  0  0  0  0  0  0  0
    4.5436   -1.6296   -0.6197 H   0  0  0  0  0  0  0  0  0  0  0  0
    3.4007   -2.8753   -1.1788 H   0  0  0  0  0  0  0  0  0  0  0  0
  5  6  2  0  0  0  0
  5  7  1  0  0  0  0
  2  3  1  0  0  0  0
  2  4  1  0  0  0  0
  2  5  1  0  0  0  0
  1  2  1  0  0  0  0
 16 17  2  0  0  0  0
 16 18  1  0  0  0  0
 14 15  1  0  0  0  0
 11 12  1  0  0  0  0
 11 13  1  0  0  0  0
 11 14  1  0  0  0  0
  9 10  1  0  0  0  0
  9 11  1  0  0  0  0
  9 16  1  0  0  0  0
  7  8  1  0  0  0  0
  7  9  1  0  0  0  0
 20 21  1  0  0  0  0
 20 22  1  0  0  0  0
 20 23  1  0  0  0  0
 18 19  1  0  0  0  0
 18 20  1  0  0  0  0
M  END
$$$$
default_name
  -OEChem-01062215323D

 23 22  0     1  0  0  0  0  0999 V2000
   -2.6721   -3.7279    0.7212 H   0  0  0  0  0  0  0  0  0  0  0  0
   -2.6561   -2.6819    0.4162 C   0  0  0  0  0  0  0  0  0  0  0  0
   -3.2401   -2.0889    1.1172 H   0  0  0  0  0  0  0  0  0  0  0  0
   -3.0671   -2.5859   -0.5858 H   0  0  0  0  0  0  0  0  0  0  0  0
   -1.2261   -2.1939    0.4202 C   0  0  0  0  0  0  0  0  0  0  0  0
   -0.3181   -2.9519    0.7312 O   0  0  0  0  0  0  0  0  0  0  0  0
   -1.0281   -0.9259    0.0662 N   0  0  0  0  0  0  0  0  0  0  0  0
   -1.8301   -0.3519   -0.1548 H   0  0  0  0  0  0  0  0  0  0  0  0
    0.2709   -0.2409    0.0912 C   0  0  1  0  0  0  0  0  0  0  0  0
    0.1378    0.7774   -0.2749 H   0  0  0  0  0  0  0  0  0  0  0  0
    0.7921   -0.1621    1.5320 C   0  0  0  0  0  0  0  0  0  0  0  0
    1.7039    0.4372    1.5503 H   0  0  0  0  0  0  0  0  0  0  0  0
    0.0431    0.3167    2.1652 H   0  0  0  0  0  0  0  0  0  0  0  0
    1.0855   -1.4525    2.0341 O   0  0  0  0  0  0  0  0  0  0  0  0
    1.5677   -1.3514    2.8619 H   0  0  0  0  0  0  0  0  0  0  0  0
    1.2744   -0.9517   -0.8321 C   0  0  0  0  0  0  0  0  0  0  0  0
    1.0402   -1.0503   -2.0372 O   0  0  0  0  0  0  0  0  0  0  0  0
    2.3921   -1.4348   -0.2792 N   0  0  0  0  0  0  0  0  0  0  0  0
    2.4537   -1.3892    0.7293 H   0  0  0  0  0  0  0  0  0  0  0  0
    3.4560   -2.1168   -1.0137 C   0  0  0  0  0  0  0  0  0  0  0  0
    3.6887   -1.5636   -1.9261 H   0  0  0  0  0  0  0  0  0  0  0  0
    4.3530   -2.1869   -0.3978 H   0  0  0  0  0  0  0  0  0  0  0  0
    3.1260   -3.1208   -1.2884 H   0  0  0  0  0  0  0  0  0  0  0  0
  5  6  2  0  0  0  0
  5  7  1  0  0  0  0
  2  3  1  0  0  0  0
  2  4  1  0  0  0  0
  2  5  1  0  0  0  0
  1  2  1  0  0  0  0
 16 17  2  0  0  0  0
 16 18  1  0  0  0  0
 14 15  1  0  0  0  0
 11 12  1  0  0  0  0
 11 13  1  0  0  0  0
 11 14  1  0  0  0  0
  9 10  1  0  0  0  0
  9 11  1  0  0  0  0
  9 16  1  0  0  0  0
  7  8  1  0  0  0  0
  7  9  1  0  0  0  0
 20 21  1  0  0  0  0
 20 22  1  0  0  0  0
 20 23  1  0  0  0  0
 18 19  1  0  0  0  0
 18 20  1  0  0  0  0
M  END
$$$$
default_name
  -OEChem-01062215323D

 23 22  0     1  0  0  0  0  0999 V2000
   -2.6721   -3.7279    0.7212 H   0  0  0  0  0  0  0  0  0  0  0  0
   -2.6561   -2.6819    0.4162 C   0  0  0  0  0  0  0  0  0  0  0  0
   -3.2401   -2.0889    1.1172 H   0  0  0  0  0  0  0  0  0  0  0  0
   -3.0671   -2.5859   -0.5858 H   0  0  0  0  0  0  0  0  0  0  0  0
   -1.2261   -2.1939    0.4202 C   0  0  0  0  0  0  0  0  0  0  0  0
   -0.3181   -2.9519    0.7312 O   0  0  0  0  0  0  0  0  0  0  0  0
   -1.0281   -0.9259    0.0662 N   0  0  0  0  0  0  0  0  0  0  0  0
   -1.8301   -0.3519   -0.1548 H   0  0  0  0  0  0  0  0  0  0  0  0
    0.2709   -0.2409    0.0912 C   0  0  1  0  0  0  0  0  0  0  0  0
    0.1378    0.7774   -0.2749 H   0  0  0  0  0  0  0  0  0  0  0  0
    0.7921   -0.1621    1.5320 C   0  0  0  0  0  0  0  0  0  0  0  0
    1.7039    0.4372    1.5503 H   0  0  0  0  0  0  0  0  0  0  0  0
    0.0431    0.3167    2.1652 H   0  0  0  0  0  0  0  0  0  0  0  0
    1.0855   -1.4525    2.0341 O   0  0  0  0  0  0  0  0  0  0  0  0
    1.5677   -1.3514    2.8619 H   0  0  0  0  0  0  0  0  0  0  0  0
    1.2744   -0.9517   -0.8321 C   0  0  0  0  0  0  0  0  0  0  0  0
    1.1908   -0.8167   -2.0534 O   0  0  0  0  0  0  0  0  0  0  0  0
    2.2266   -1.6952   -0.2586 N   0  0  0  0  0  0  0  0  0  0  0  0
    2.1595   -1.8218    0.7425 H   0  0  0  0  0  0  0  0  0  0  0  0
    3.2683   -2.4181   -0.9856 C   0  0  0  0  0  0  0  0  0  0  0  0
    3.6981   -1.7728   -1.7548 H   0  0  0  0  0  0  0  0  0  0  0  0
    4.0557   -2.7332   -0.3003 H   0  0  0  0  0  0  0  0  0  0  0  0
    2.8357   -3.2967   -1.4685 H   0  0  0  0  0  0  0  0  0  0  0  0
  5  6  2  0  0  0  0
  5  7  1  0  0  0  0
  2  3  1  0  0  0  0
  2  4  1  0  0  0  0
  2  5  1  0  0  0  0
  1  2  1  0  0  0  0
 16 17  2  0  0  0  0
 16 18  1  0  0  0  0
 14 15  1  0  0  0  0
 11 12  1  0  0  0  0
 11 13  1  0  0  0  0
 11 14  1  0  0  0  0
  9 10  1  0  0  0  0
  9 11  1  0  0  0  0
  9 16  1  0  0  0  0
  7  8  1  0  0  0  0
  7  9  1  0  0  0  0
 20 21  1  0  0  0  0
 20 22  1  0  0  0  0
 20 23  1  0  0  0  0
 18 19  1  0  0  0  0
 18 20  1  0  0  0  0
M  END
$$$$
default_name
  -OEChem-01062215323D

 23 22  0     1  0  0  0  0  0999 V2000
   -2.6721   -3.7279    0.7212 H   0  0  0  0  0  0  0  0  0  0  0  0
   -2.6561   -2.6819    0.4162 C   0  0  0  0  0  0  0  0  0  0  0  0
   -3.2401   -2.0889    1.1172 H   0  0  0  0  0  0  0  0  0  0  0  0
   -3.0671   -2.5859   -0.5858 H   0  0  0  0  0  0  0  0  0  0  0  0
   -1.2261   -2.1939    0.4202 C   0  0  0  0  0  0  0  0  0  0  0  0
   -0.3181   -2.9519    0.7312 O   0  0  0  0  0  0  0  0  0  0  0  0
   -1.0281   -0.9259    0.0662 N   0  0  0  0  0  0  0  0  0  0  0  0
   -1.8301   -0.3519   -0.1548 H   0  0  0  0  0  0  0  0  0  0  0  0
    0.2709   -0.2409    0.0912 C   0  0  1  0  0  0  0  0  0  0  0  0
    0.1378    0.7774   -0.2749 H   0  0  0  0  0  0  0  0  0  0  0  0
    0.7921   -0.1621    1.5320 C   0  0  0  0  0  0  0  0  0  0  0  0
    1.7039    0.4372    1.5503 H   0  0  0  0  0  0  0  0  0  0  0  0
    0.0431    0.3167    2.1652 H   0  0  0  0  0  0  0  0  0  0  0  0
    1.0855   -1.4525    2.0341 O   0  0  0  0  0  0  0  0  0  0  0  0
    1.5677   -1.3514    2.8619 H   0  0  0  0  0  0  0  0  0  0  0  0
    1.2744   -0.9517   -0.8321 C   0  0  0  0  0  0  0  0  0  0  0  0
    1.3744   -0.6118   -2.0116 O   0  0  0  0  0  0  0  0  0  0  0  0
    2.0238   -1.9245   -0.3025 N   0  0  0  0  0  0  0  0  0  0  0  0
    1.8065   -2.1962    0.6471 H   0  0  0  0  0  0  0  0  0  0  0  0
    3.0369   -2.6847   -1.0319 C   0  0  0  0  0  0  0  0  0  0  0  0
    3.6542   -2.0053   -1.6236 H   0  0  0  0  0  0  0  0  0  0  0  0
    3.6721   -3.2310   -0.3341 H   0  0  0  0  0  0  0  0  0  0  0  0
    2.5494   -3.3911   -1.7070 H   0  0  0  0  0  0  0  0  0  0  0  0
  5  6  2  0  0  0  0
  5  7  1  0  0  0  0
  2  3  1  0  0  0  0
  2  4  1  0  0  0  0
  2  5  1  0  0  0  0
  1  2  1  0  0  0  0
 16 17  2  0  0  0  0
 16 18  1  0  0  0  0
 14 15  1  0  0  0  0
 11 12  1  0  0  0  0
 11 13  1  0  0  0  0
 11 14  1  0  0  0  0
  9 10  1  0  0  0  0
  9 11  1  0  0  0  0
  9 16  1  0  0  0  0
  7  8  1  0  0  0  0
  7  9  1  0  0  0  0
 20 21  1  0  0  0  0
 20 22  1  0  0  0  0
 20 23  1  0  0  0  0
 18 19  1  0  0  0  0
 18 20  1  0  0  0  0
M  END
$$$$
default_name
  -OEChem-01062215323D

 23 22  0     1  0  0  0  0  0999 V2000
   -2.6721   -3.7279    0.7212 H   0  0  0  0  0  0  0  0  0  0  0  0
   -2.6561   -2.6819    0.4162 C   0  0  0  0  0  0  0  0  0  0  0  0
   -3.2401   -2.0889    1.1172 H   0  0  0  0  0  0  0  0  0  0  0  0
   -3.0671   -2.5859   -0.5858 H   0  0  0  0  0  0  0  0  0  0  0  0
   -1.2261   -2.1939    0.4202 C   0  0  0  0  0  0  0  0  0  0  0  0
   -0.3181   -2.9519    0.7312 O   0  0  0  0  0  0  0  0  0  0  0  0
   -1.0281   -0.9259    0.0662 N   0  0  0  0  0  0  0  0  0  0  0  0
   -1.8301   -0.3519   -0.1548 H   0  0  0  0  0  0  0  0  0  0  0  0
    0.2709   -0.2409    0.0912 C   0  0  1  0  0  0  0  0  0  0  0  0
    0.1378    0.7774   -0.2749 H   0  0  0  0  0  0  0  0  0  0  0  0
    0.7921   -0.1621    1.5320 C   0  0  0  0  0  0  0  0  0  0  0  0
    1.7039    0.4372    1.5503 H   0  0  0  0  0  0  0  0  0  0  0  0
    0.0431    0.3167    2.1652 H   0  0  0  0  0  0  0  0  0  0  0  0
    1.0855   -1.4525    2.0341 O   0  0  0  0  0  0  0  0  0  0  0  0
    1.5677   -1.3514    2.8619 H   0  0  0  0  0  0  0  0  0  0  0  0
    1.2744   -0.9517   -0.8321 C   0  0  0  0  0  0  0  0  0  0  0  0
    1.5786   -0.4494   -1.9147 O   0  0  0  0  0  0  0  0  0  0  0  0
    1.7975   -2.1071   -0.4080 N   0  0  0  0  0  0  0  0  0  0  0  0
    1.4188   -2.4869    0.4495 H   0  0  0  0  0  0  0  0  0  0  0  0
    2.7775   -2.8984   -1.1493 C   0  0  0  0  0  0  0  0  0  0  0  0
    3.5600   -2.2451   -1.5413 H   0  0  0  0  0  0  0  0  0  0  0  0
    3.2281   -3.6466   -0.4966 H   0  0  0  0  0  0  0  0  0  0  0  0
    2.2868   -3.3975   -1.9875 H   0  0  0  0  0  0  0  0  0  0  0  0
  5  6  2  0  0  0  0
  5  7  1  0  0  0  0
  2  3  1  0  0  0  0
  2  4  1  0  0  0  0
  2  5  1  0  0  0  0
  1  2  1  0  0  0  0
 16 17  2  0  0  0  0
 16 18  1  0  0  0  0
 14 15  1  0  0  0  0
 11 12  1  0  0  0  0
 11 13  1  0  0  0  0
 11 14  1  0  0  0  0
  9 10  1  0  0  0  0
  9 11  1  0  0  0  0
  9 16  1  0  0  0  0
  7  8  1  0  0  0  0
  7  9  1  0  0  0  0
 20 21  1  0  0  0  0
 20 22  1  0  0  0  0
 20 23  1  0  0  0  0
 18 19  1  0  0  0  0
 18 20  1  0  0  0  0
M  END
$$$$
default_name
  -OEChem-01062215323D

 23 22  0     1  0  0  0  0  0999 V2000
   -2.6721   -3.7279    0.7212 H   0  0  0  0  0  0  0  0  0  0  0  0
   -2.6561   -2.6819    0.4162 C   0  0  0  0  0  0  0  0  0  0  0  0
   -3.2401   -2.0889    1.1172 H   0  0  0  0  0  0  0  0  0  0  0  0
   -3.0671   -2.5859   -0.5858 H   0  0  0  0  0  0  0  0  0  0  0  0
   -1.2261   -2.1939    0.4202 C   0  0  0  0  0  0  0  0  0  0  0  0
   -0.3181   -2.9519    0.7312 O   0  0  0  0  0  0  0  0  0  0  0  0
   -1.0281   -0.9259    0.0662 N   0  0  0  0  0  0  0  0  0  0  0  0
   -1.8301   -0.3519   -0.1548 H   0  0  0  0  0  0  0  0  0  0  0  0
    0.2709   -0.2409    0.0912 C   0  0  1  0  0  0  0  0  0  0  0  0
    0.1378    0.7774   -0.2749 H   0  0  0  0  0  0  0  0  0  0  0  0
    0.7921   -0.1621    1.5320 C   0  0  0  0  0  0  0  0  0  0  0  0
    1.7039    0.4372    1.5503 H   0  0  0  0  0  0  0  0  0  0  0  0
    0.0431    0.3167    2.1652 H   0  0  0  0  0  0  0  0  0  0  0  0
    1.0855   -1.4525    2.0341 O   0  0  0  0  0  0  0  0  0  0  0  0
    1.5677   -1.3514    2.8619 H   0  0  0  0  0  0  0  0  0  0  0  0
    1.2744   -0.9517   -0.8321 C   0  0  0  0  0  0  0  0  0  0  0  0
    1.7895   -0.3407   -1.7692 O   0  0  0  0  0  0  0  0  0  0  0  0
    1.5632   -2.2304   -0.5677 N   0  0  0  0  0  0  0  0  0  0  0  0
    1.0227   -2.6740    0.1631 H   0  0  0  0  0  0  0  0  0  0  0  0
    2.5078   -3.0447   -1.3299 C   0  0  0  0  0  0  0  0  0  0  0  0
    3.4219   -2.4761   -1.5136 H   0  0  0  0  0  0  0  0  0  0  0  0
    2.7542   -3.9516   -0.7769 H   0  0  0  0  0  0  0  0  0  0  0  0
    2.0657   -3.3155   -2.2909 H   0  0  0  0  0  0  0  0  0  0  0  0
  5  6  2  0  0  0  0
  5  7  1  0  0  0  0
  2  3  1  0  0  0  0
  2  4  1  0  0  0  0
  2  5  1  0  0  0  0
  1  2  1  0  0  0  0
 16 17  2  0  0  0  0
 16 18  1  0  0  0  0
 14 15  1  0  0  0  0
 11 12  1  0  0  0  0
 11 13  1  0  0  0  0
 11 14  1  0  0  0  0
  9 10  1  0  0  0  0
  9 11  1  0  0  0  0
  9 16  1  0  0  0  0
  7  8  1  0  0  0  0
  7  9  1  0  0  0  0
 20 21  1  0  0  0  0
 20 22  1  0  0  0  0
 20 23  1  0  0  0  0
 18 19  1  0  0  0  0
 18 20  1  0  0  0  0
M  END
$$$$
default_name
  -OEChem-01062215323D

 23 22  0     1  0  0  0  0  0999 V2000
   -2.6721   -3.7279    0.7212 H   0  0  0  0  0  0  0  0  0  0  0  0
   -2.6561   -2.6819    0.4162 C   0  0  0  0  0  0  0  0  0  0  0  0
   -3.2401   -2.0889    1.1172 H   0  0  0  0  0  0  0  0  0  0  0  0
   -3.0671   -2.5859   -0.5858 H   0  0  0  0  0  0  0  0  0  0  0  0
   -1.2261   -2.1939    0.4202 C   0  0  0  0  0  0  0  0  0  0  0  0
   -0.3181   -2.9519    0.7312 O   0  0  0  0  0  0  0  0  0  0  0  0
   -1.0281   -0.9259    0.0662 N   0  0  0  0  0  0  0  0  0  0  0  0
   -1.8301   -0.3519   -0.1548 H   0  0  0  0  0  0  0  0  0  0  0  0
    0.2709   -0.2409    0.0912 C   0  0  1  0  0  0  0  0  0  0  0  0
    0.1378    0.7774   -0.2749 H   0  0  0  0  0  0  0  0  0  0  0  0
    0.7921   -0.1621    1.5320 C   0  0  0  0  0  0  0  0  0  0  0  0
    1.7039    0.4372    1.5503 H   0  0  0  0  0  0  0  0  0  0  0  0
    0.0431    0.3167    2.1652 H   0  0  0  0  0  0  0  0  0  0  0  0
    1.0855   -1.4525    2.0341 O   0  0  0  0  0  0  0  0  0  0  0  0
    1.5677   -1.3514    2.8619 H   0  0  0  0  0  0  0  0  0  0  0  0
    1.2744   -0.9517   -0.8321 C   0  0  0  0  0  0  0  0  0  0  0  0
    1.9927   -0.2930   -1.5851 O   0  0  0  0  0  0  0  0  0  0  0  0
    1.3368   -2.2862   -0.7708 N   0  0  0  0  0  0  0  0  0  0  0  0
    0.6453   -2.7448   -0.1926 H   0  0  0  0  0  0  0  0  0  0  0  0
    2.2461   -3.1136   -1.5612 C   0  0  0  0  0  0  0  0  0  0  0  0
    3.2493   -2.6824   -1.5424 H   0  0  0  0  0  0  0  0  0  0  0  0
    2.2825   -4.1252   -1.1559 H   0  0  0  0  0  0  0  0  0  0  0  0
    1.9012   -3.1507   -2.5966 H   0  0  0  0  0  0  0  0  0  0  0  0
  5  6  2  0  0  0  0
  5  7  1  0  0  0  0
  2  3  1  0  0  0  0
  2  4  1  0  0  0  0
  2  5  1  0  0  0  0
  1  2  1  0  0  0  0
 16 17  2  0  0  0  0
 16 18  1  0  0  0  0
 14 15  1  0  0  0  0
 11 12  1  0  0  0  0
 11 13  1  0  0  0  0
 11 14  1  0  0  0  0
  9 10  1  0  0  0  0
  9 11  1  0  0  0  0
  9 16  1  0  0  0  0
  7  8  1  0  0  0  0
  7  9  1  0  0  0  0
 20 21  1  0  0  0  0
 20 22  1  0  0  0  0
 20 23  1  0  0  0  0
 18 19  1  0  0  0  0
 18 20  1  0  0  0  0
M  END
$$$$
default_name
  -OEChem-01062215323D

 23 22  0     1  0  0  0  0  0999 V2000
   -2.6721   -3.7279    0.7212 H   0  0  0  0  0  0  0  0  0  0  0  0
   -2.6561   -2.6819    0.4162 C   0  0  0  0  0  0  0  0  0  0  0  0
   -3.2401   -2.0889    1.1172 H   0  0  0  0  0  0  0  0  0  0  0  0
   -3.0671   -2.5859   -0.5858 H   0  0  0  0  0  0  0  0  0  0  0  0
   -1.2261   -2.1939    0.4202 C   0  0  0  0  0  0  0  0  0  0  0  0
   -0.3181   -2.9519    0.7312 O   0  0  0  0  0  0  0  0  0  0  0  0
   -1.0281   -0.9259    0.0662 N   0  0  0  0  0  0  0  0  0  0  0  0
   -1.8301   -0.3519   -0.1548 H   0  0  0  0  0  0  0  0  0  0  0  0
    0.2709   -0.2409    0.0912 C   0  0  1  0  0  0  0  0  0  0  0  0
    0.1378    0.7774   -0.2749 H   0  0  0  0  0  0  0  0  0  0  0  0
    0.7921   -0.1621    1.5320 C   0  0  0  0  0  0  0  0  0  0  0  0
    1.7039    0.4372    1.5503 H   0  0  0  0  0  0  0  0  0  0  0  0
    0.0431    0.3167    2.1652 H   0  0  0  0  0  0  0  0  0  0  0  0
    1.0855   -1.4525    2.0341 O   0  0  0  0  0  0  0  0  0  0  0  0
    1.5677   -1.3514    2.8619 H   0  0  0  0  0  0  0  0  0  0  0  0
    1.2744   -0.9517   -0.8321 C   0  0  0  0  0  0  0  0  0  0  0  0
    2.1744   -0.3096   -1.3748 O   0  0  0  0  0  0  0  0  0  0  0  0
    1.1338   -2.2705   -1.0035 N   0  0  0  0  0  0  0  0  0  0  0  0
    0.3124   -2.6945   -0.5932 H   0  0  0  0  0  0  0  0  0  0  0  0
    2.0103   -3.1004   -1.8277 C   0  0  0  0  0  0  0  0  0  0  0  0
    3.0539   -2.8499   -1.6257 H   0  0  0  0  0  0  0  0  0  0  0  0
    1.8453   -4.1556   -1.6077 H   0  0  0  0  0  0  0  0  0  0  0  0
    1.8044   -2.9143   -2.8838 H   0  0  0  0  0  0  0  0  0  0  0  0
  5  6  2  0  0  0  0
  5  7  1  0  0  0  0
  2  3  1  0  0  0  0
  2  4  1  0  0  0  0
  2  5  1  0  0  0  0
  1  2  1  0  0  0  0
 16 17  2  0  0  0  0
 16 18  1  0  0  0  0
 14 15  1  0  0  0  0
 11 12  1  0  0  0  0
 11 13  1  0  0  0  0
 11 14  1  0  0  0  0
  9 10  1  0  0  0  0
  9 11  1  0  0  0  0
  9 16  1  0  0  0  0
  7  8  1  0  0  0  0
  7  9  1  0  0  0  0
 20 21  1  0  0  0  0
 20 22  1  0  0  0  0
 20 23  1  0  0  0  0
 18 19  1  0  0  0  0
 18 20  1  0  0  0  0
M  END
$$$$
default_name
  -OEChem-01062215323D

 23 22  0     1  0  0  0  0  0999 V2000
   -2.6721   -3.7279    0.7212 H   0  0  0  0  0  0  0  0  0  0  0  0
   -2.6561   -2.6819    0.4162 C   0  0  0  0  0  0  0  0  0  0  0  0
   -3.2401   -2.0889    1.1172 H   0  0  0  0  0  0  0  0  0  0  0  0
   -3.0671   -2.5859   -0.5858 H   0  0  0  0  0  0  0  0  0  0  0  0
   -1.2261   -2.1939    0.4202 C   0  0  0  0  0  0  0  0  0  0  0  0
   -0.3181   -2.9519    0.7312 O   0  0  0  0  0  0  0  0  0  0  0  0
   -1.0281   -0.9259    0.0662 N   0  0  0  0  0  0  0  0  0  0  0  0
   -1.8301   -0.3519   -0.1548 H   0  0  0  0  0  0  0  0  0  0  0  0
    0.2709   -0.2409    0.0912 C   0  0  1  0  0  0  0  0  0  0  0  0
    0.1378    0.7774   -0.2749 H   0  0  0  0  0  0  0  0  0  0  0  0
    0.7921   -0.1621    1.5320 C   0  0  0  0  0  0  0  0  0  0  0  0
    1.7039    0.4372    1.5503 H   0  0  0  0  0  0  0  0  0  0  0  0
    0.0431    0.3167    2.1652 H   0  0  0  0  0  0  0  0  0  0  0  0
    1.0855   -1.4525    2.0341 O   0  0  0  0  0  0  0  0  0  0  0  0
    1.5677   -1.3514    2.8619 H   0  0  0  0  0  0  0  0  0  0  0  0
    1.2744   -0.9517   -0.8321 C   0  0  0  0  0  0  0  0  0  0  0  0
    2.3221   -0.3894   -1.1528 O   0  0  0  0  0  0  0  0  0  0  0  0
    0.9679   -2.1846   -1.2499 N   0  0  0  0  0  0  0  0  0  0  0  0
    0.0465   -2.5266   -1.0115 H   0  0  0  0  0  0  0  0  0  0  0  0
    1.8164   -3.0060   -2.1110 C   0  0  0  0  0  0  0  0  0  0  0  0
    2.8491   -2.9674   -1.7579 H   0  0  0  0  0  0  0  0  0  0  0  0
    1.4723   -4.0407   -2.1016 H   0  0  0  0  0  0  0  0  0  0  0  0
    1.7821   -2.6224   -3.1328 H   0  0  0  0  0  0  0  0  0  0  0  0
  5  6  2  0  0  0  0
  5  7  1  0  0  0  0
  2  3  1  0  0  0  0
  2  4  1  0  0  0  0
  2  5  1  0  0  0  0
  1  2  1  0  0  0  0
 16 17  2  0  0  0  0
 16 18  1  0  0  0  0
 14 15  1  0  0  0  0
 11 12  1  0  0  0  0
 11 13  1  0  0  0  0
 11 14  1  0  0  0  0
  9 10  1  0  0  0  0
  9 11  1  0  0  0  0
  9 16  1  0  0  0  0
  7  8  1  0  0  0  0
  7  9  1  0  0  0  0
 20 21  1  0  0  0  0
 20 22  1  0  0  0  0
 20 23  1  0  0  0  0
 18 19  1  0  0  0  0
 18 20  1  0  0  0  0
M  END
$$$$
default_name
  -OEChem-01062215323D

 23 22  0     1  0  0  0  0  0999 V2000
   -2.6721   -3.7279    0.7212 H   0  0  0  0  0  0  0  0  0  0  0  0
   -2.6561   -2.6819    0.4162 C   0  0  0  0  0  0  0  0  0  0  0  0
   -3.2401   -2.0889    1.1172 H   0  0  0  0  0  0  0  0  0  0  0  0
   -3.0671   -2.5859   -0.5858 H   0  0  0  0  0  0  0  0  0  0  0  0
   -1.2261   -2.1939    0.4202 C   0  0  0  0  0  0  0  0  0  0  0  0
   -0.3181   -2.9519    0.7312 O   0  0  0  0  0  0  0  0  0  0  0  0
   -1.0281   -0.9259    0.0662 N   0  0  0  0  0  0  0  0  0  0  0  0
   -1.8301   -0.3519   -0.1548 H   0  0  0  0  0  0  0  0  0  0  0  0
    0.2709   -0.2409    0.0912 C   0  0  1  0  0  0  0  0  0  0  0  0
    0.1378    0.7774   -0.2749 H   0  0  0  0  0  0  0  0  0  0  0  0
    0.7921   -0.1621    1.5320 C   0  0  0  0  0  0  0  0  0  0  0  0
    1.7039    0.4372    1.5503 H   0  0  0  0  0  0  0  0  0  0  0  0
    0.0431    0.3167    2.1652 H   0  0  0  0  0  0  0  0  0  0  0  0
    1.0855   -1.4525    2.0341 O   0  0  0  0  0  0  0  0  0  0  0  0
    1.5677   -1.3514    2.8619 H   0  0  0  0  0  0  0  0  0  0  0  0
    1.2744   -0.9517   -0.8321 C   0  0  0  0  0  0  0  0  0  0  0  0
    2.4259   -0.5269   -0.9342 O   0  0  0  0  0  0  0  0  0  0  0  0
    0.8505   -2.0342   -1.4933 N   0  0  0  0  0  0  0  0  0  0  0  0
   -0.1342   -2.2523   -1.4190 H   0  0  0  0  0  0  0  0  0  0  0  0
    1.6778   -2.8369   -2.3919 C   0  0  0  0  0  0  0  0  0  0  0  0
    2.6489   -3.0267   -1.9299 H   0  0  0  0  0  0  0  0  0  0  0  0
    1.1890   -3.7883   -2.6038 H   0  0  0  0  0  0  0  0  0  0  0  0
    1.8356   -2.2949   -3.3267 H   0  0  0  0  0  0  0  0  0  0  0  0
  5  6  2  0  0  0  0
  5  7  1  0  0  0  0
  2  3  1  0  0  0  0
  2  4  1  0  0  0  0
  2  5  1  0  0  0  0
  1  2  1  0  0  0  0
 16 17  2  0  0  0  0
 16 18  1  0  0  0  0
 14 15  1  0  0  0  0
 11 12  1  0  0  0  0
 11 13  1  0  0  0  0
 11 14  1  0  0  0  0
  9 10  1  0  0  0  0
  9 11  1  0  0  0  0
  9 16  1  0  0  0  0
  7  8  1  0  0  0  0
  7  9  1  0  0  0  0
 20 21  1  0  0  0  0
 20 22  1  0  0  0  0
 20 23  1  0  0  0  0
 18 19  1  0  0  0  0
 18 20  1  0  0  0  0
M  END
$$$$
default_name
  -OEChem-01062215323D

 23 22  0     1  0  0  0  0  0999 V2000
   -2.6721   -3.7279    0.7212 H   0  0  0  0  0  0  0  0  0  0  0  0
   -2.6561   -2.6819    0.4162 C   0  0  0  0  0  0  0  0  0  0  0  0
   -3.2401   -2.0889    1.1172 H   0  0  0  0  0  0  0  0  0  0  0  0
   -3.0671   -2.5859   -0.5858 H   0  0  0  0  0  0  0  0  0  0  0  0
   -1.2261   -2.1939    0.4202 C   0  0  0  0  0  0  0  0  0  0  0  0
   -0.3181   -2.9519    0.7312 O   0  0  0  0  0  0  0  0  0  0  0  0
   -1.0281   -0.9259    0.0662 N   0  0  0  0  0  0  0  0  0  0  0  0
   -1.8301   -0.3519   -0.1548 H   0  0  0  0  0  0  0  0  0  0  0  0
    0.2709   -0.2409    0.0912 C   0  0  1  0  0  0  0  0  0  0  0  0
    0.1378    0.7774   -0.2749 H   0  0  0  0  0  0  0  0  0  0  0  0
    0.7921   -0.1621    1.5320 C   0  0  0  0  0  0  0  0  0  0  0  0
    1.7039    0.4372    1.5503 H   0  0  0  0  0  0  0  0  0  0  0  0
    0.0431    0.3167    2.1652 H   0  0  0  0  0  0  0  0  0  0  0  0
    1.0855   -1.4525    2.0341 O   0  0  0  0  0  0  0  0  0  0  0  0
    1.5677   -1.3514    2.8619 H   0  0  0  0  0  0  0  0  0  0  0  0
    1.2744   -0.9517   -0.8321 C   0  0  0  0  0  0  0  0  0  0  0  0
    2.4785   -0.7128   -0.7338 O   0  0  0  0  0  0  0  0  0  0  0  0
    0.7897   -1.8295   -1.7170 N   0  0  0  0  0  0  0  0  0  0  0  0
   -0.2174   -1.8906   -1.7879 H   0  0  0  0  0  0  0  0  0  0  0  0
    1.6037   -2.6045   -2.6513 C   0  0  0  0  0  0  0  0  0  0  0  0
    2.4669   -3.0238   -2.1299 H   0  0  0  0  0  0  0  0  0  0  0  0
    1.0146   -3.4157   -3.0802 H   0  0  0  0  0  0  0  0  0  0  0  0
    1.9614   -1.9542   -3.4522 H   0  0  0  0  0  0  0  0  0  0  0  0
  5  6  2  0  0  0  0
  5  7  1  0  0  0  0
  2  3  1  0  0  0  0
  2  4  1  0  0  0  0
  2  5  1  0  0  0  0
  1  2  1  0  0  0  0
 16 17  2  0  0  0  0
 16 18  1  0  0  0  0
 14 15  1  0  0  0  0
 11 12  1  0  0  0  0
 11 13  1  0  0  0  0
 11 14  1  0  0  0  0
  9 10  1  0  0  0  0
  9 11  1  0  0  0  0
  9 16  1  0  0  0  0
  7  8  1  0  0  0  0
  7  9  1  0  0  0  0
 20 21  1  0  0  0  0
 20 22  1  0  0  0  0
 20 23  1  0  0  0  0
 18 19  1  0  0  0  0
 18 20  1  0  0  0  0
M  END
$$$$
default_name
  -OEChem-01062215323D

 23 22  0     1  0  0  0  0  0999 V2000
   -2.6721   -3.7279    0.7212 H   0  0  0  0  0  0  0  0  0  0  0  0
   -2.6561   -2.6819    0.4162 C   0  0  0  0  0  0  0  0  0  0  0  0
   -3.2401   -2.0889    1.1172 H   0  0  0  0  0  0  0  0  0  0  0  0
   -3.0671   -2.5859   -0.5858 H   0  0  0  0  0  0  0  0  0  0  0  0
   -1.2261   -2.1939    0.4202 C   0  0  0  0  0  0  0  0  0  0  0  0
   -0.3181   -2.9519    0.7312 O   0  0  0  0  0  0  0  0  0  0  0  0
   -1.0281   -0.9259    0.0662 N   0  0  0  0  0  0  0  0  0  0  0  0
   -1.8301   -0.3519   -0.1548 H   0  0  0  0  0  0  0  0  0  0  0  0
    0.2709   -0.2409    0.0912 C   0  0  1  0  0  0  0  0  0  0  0  0
    0.1378    0.7774   -0.2749 H   0  0  0  0  0  0  0  0  0  0  0  0
    0.7921   -0.1621    1.5320 C   0  0  0  0  0  0  0  0  0  0  0  0
    1.7039    0.4372    1.5503 H   0  0  0  0  0  0  0  0  0  0  0  0
    0.0431    0.3167    2.1652 H   0  0  0  0  0  0  0  0  0  0  0  0
    1.0855   -1.4525    2.0341 O   0  0  0  0  0  0  0  0  0  0  0  0
    1.5677   -1.3514    2.8619 H   0  0  0  0  0  0  0  0  0  0  0  0
    1.2744   -0.9517   -0.8321 C   0  0  0  0  0  0  0  0  0  0  0  0
    2.4766   -0.9344   -0.5654 O   0  0  0  0  0  0  0  0  0  0  0  0
    0.7894   -1.5846   -1.9058 N   0  0  0  0  0  0  0  0  0  0  0  0
   -0.1974   -1.4659   -2.0930 H   0  0  0  0  0  0  0  0  0  0  0  0
    1.5993   -2.3248   -2.8715 C   0  0  0  0  0  0  0  0  0  0  0  0
    2.3154   -2.9589   -2.3445 H   0  0  0  0  0  0  0  0  0  0  0  0
    0.9610   -2.9482   -3.4983 H   0  0  0  0  0  0  0  0  0  0  0  0
    2.1509   -1.6234   -3.5009 H   0  0  0  0  0  0  0  0  0  0  0  0
  5  6  2  0  0  0  0
  5  7  1  0  0  0  0
  2  3  1  0  0  0  0
  2  4  1  0  0  0  0
  2  5  1  0  0  0  0
  1  2  1  0  0  0  0
 16 17  2  0  0  0  0
 16 18  1  0  0  0  0
 14 15  1  0  0  0  0
 11 12  1  0  0  0  0
 11 13  1  0  0  0  0
 11 14  1  0  0  0  0
  9 10  1  0  0  0  0
  9 11  1  0  0  0  0
  9 16  1  0  0  0  0
  7  8  1  0  0  0  0
  7  9  1  0  0  0  0
 20 21  1  0  0  0  0
 20 22  1  0  0  0  0
 20 23  1  0  0  0  0
 18 19  1  0  0  0  0
 18 20  1  0  0  0  0
M  END
$$$$
default_name
  -OEChem-01062215323D

 23 22  0     1  0  0  0  0  0999 V2000
   -2.6721   -3.7279    0.7212 H   0  0  0  0  0  0  0  0  0  0  0  0
   -2.6561   -2.6819    0.4162 C   0  0  0  0  0  0  0  0  0  0  0  0
   -3.2401   -2.0889    1.1172 H   0  0  0  0  0  0  0  0  0  0  0  0
   -3.0671   -2.5859   -0.5858 H   0  0  0  0  0  0  0  0  0  0  0  0
   -1.2261   -2.1939    0.4202 C   0  0  0  0  0  0  0  0  0  0  0  0
   -0.3181   -2.9519    0.7312 O   0  0  0  0  0  0  0  0  0  0  0  0
   -1.0281   -0.9259    0.0662 N   0  0  0  0  0  0  0  0  0  0  0  0
   -1.8301   -0.3519   -0.1548 H   0  0  0  0  0  0  0  0  0  0  0  0
    0.2709   -0.2409    0.0912 C   0  0  1  0  0  0  0  0  0  0  0  0
    0.1378    0.7774   -0.2749 H   0  0  0  0  0  0  0  0  0  0  0  0
    0.7921   -0.1621    1.5320 C   0  0  0  0  0  0  0  0  0  0  0  0
    1.7039    0.4372    1.5503 H   0  0  0  0  0  0  0  0  0  0  0  0
    0.0431    0.3167    2.1652 H   0  0  0  0  0  0  0  0  0  0  0  0
    1.0855   -1.4525    2.0341 O   0  0  0  0  0  0  0  0  0  0  0  0
    1.5677   -1.3514    2.8619 H   0  0  0  0  0  0  0  0  0  0  0  0
    1.2744   -0.9517   -0.8321 C   0  0  0  0  0  0  0  0  0  0  0  0
    2.4201   -1.1765   -0.4404 O   0  0  0  0  0  0  0  0  0  0  0  0
    0.8498   -1.3161   -2.0468 N   0  0  0  0  0  0  0  0  0  0  0  0
   -0.0755   -1.0072   -2.3137 H   0  0  0  0  0  0  0  0  0  0  0  0
    1.6649   -2.0167   -3.0374 C   0  0  0  0  0  0  0  0  0  0  0  0
    2.2049   -2.8365   -2.5589 H   0  0  0  0  0  0  0  0  0  0  0  0
    1.0320   -2.4177   -3.8296 H   0  0  0  0  0  0  0  0  0  0  0  0
    2.3912   -1.3251   -3.4694 H   0  0  0  0  0  0  0  0  0  0  0  0
  5  6  2  0  0  0  0
  5  7  1  0  0  0  0
  2  3  1  0  0  0  0
  2  4  1  0  0  0  0
  2  5  1  0  0  0  0
  1  2  1  0  0  0  0
 16 17  2  0  0  0  0
 16 18  1  0  0  0  0
 14 15  1  0  0  0  0
 11 12  1  0  0  0  0
 11 13  1  0  0  0  0
 11 14  1  0  0  0  0
  9 10  1  0  0  0  0
  9 11  1  0  0  0  0
  9 16  1  0  0  0  0
  7  8  1  0  0  0  0
  7  9  1  0  0  0  0
 20 21  1  0  0  0  0
 20 22  1  0  0  0  0
 20 23  1  0  0  0  0
 18 19  1  0  0  0  0
 18 20  1  0  0  0  0
M  END
$$$$
default_name
  -OEChem-01062215323D

 23 22  0     1  0  0  0  0  0999 V2000
   -2.6721   -3.7279    0.7212 H   0  0  0  0  0  0  0  0  0  0  0  0
   -2.6561   -2.6819    0.4162 C   0  0  0  0  0  0  0  0  0  0  0  0
   -3.2401   -2.0889    1.1172 H   0  0  0  0  0  0  0  0  0  0  0  0
   -3.0671   -2.5859   -0.5858 H   0  0  0  0  0  0  0  0  0  0  0  0
   -1.2261   -2.1939    0.4202 C   0  0  0  0  0  0  0  0  0  0  0  0
   -0.3181   -2.9519    0.7312 O   0  0  0  0  0  0  0  0  0  0  0  0
   -1.0281   -0.9259    0.0662 N   0  0  0  0  0  0  0  0  0  0  0  0
   -1.8301   -0.3519   -0.1548 H   0  0  0  0  0  0  0  0  0  0  0  0
    0.2709   -0.2409    0.0912 C   0  0  1  0  0  0  0  0  0  0  0  0
    0.1378    0.7774   -0.2749 H   0  0  0  0  0  0  0  0  0  0  0  0
    0.7921   -0.1621    1.5320 C   0  0  0  0  0  0  0  0  0  0  0  0
    1.7039    0.4372    1.5503 H   0  0  0  0  0  0  0  0  0  0  0  0
    0.0431    0.3167    2.1652 H   0  0  0  0  0  0  0  0  0  0  0  0
    1.0855   -1.4525    2.0341 O   0  0  0  0  0  0  0  0  0  0  0  0
    1.5677   -1.3514    2.8619 H   0  0  0  0  0  0  0  0  0  0  0  0
    1.2744   -0.9517   -0.8321 C   0  0  0  0  0  0  0  0  0  0  0  0
    2.3129   -1.4228   -0.3672 O   0  0  0  0  0  0  0  0  0  0  0  0
    0.9668   -1.0423   -2.1305 N   0  0  0  0  0  0  0  0  0  0  0  0
    0.1398   -0.5459   -2.4348 H   0  0  0  0  0  0  0  0  0  0  0  0
    1.7959   -1.7012   -3.1378 C   0  0  0  0  0  0  0  0  0  0  0  0
    2.1427   -2.6648   -2.7585 H   0  0  0  0  0  0  0  0  0  0  0  0
    1.2226   -1.8603   -4.0515 H   0  0  0  0  0  0  0  0  0  0  0  0
    2.6658   -1.0796   -3.3599 H   0  0  0  0  0  0  0  0  0  0  0  0
  5  6  2  0  0  0  0
  5  7  1  0  0  0  0
  2  3  1  0  0  0  0
  2  4  1  0  0  0  0
  2  5  1  0  0  0  0
  1  2  1  0  0  0  0
 16 17  2  0  0  0  0
 16 18  1  0  0  0  0
 14 15  1  0  0  0  0
 11 12  1  0  0  0  0
 11 13  1  0  0  0  0
 11 14  1  0  0  0  0
  9 10  1  0  0  0  0
  9 11  1  0  0  0  0
  9 16  1  0  0  0  0
  7  8  1  0  0  0  0
  7  9  1  0  0  0  0
 20 21  1  0  0  0  0
 20 22  1  0  0  0  0
 20 23  1  0  0  0  0
 18 19  1  0  0  0  0
 18 20  1  0  0  0  0
M  END
$$$$
default_name
  -OEChem-01062215323D

 23 22  0     1  0  0  0  0  0999 V2000
   -2.6721   -3.7279    0.7212 H   0  0  0  0  0  0  0  0  0  0  0  0
   -2.6561   -2.6819    0.4162 C   0  0  0  0  0  0  0  0  0  0  0  0
   -3.2401   -2.0889    1.1172 H   0  0  0  0  0  0  0  0  0  0  0  0
   -3.0671   -2.5859   -0.5858 H   0  0  0  0  0  0  0  0  0  0  0  0
   -1.2261   -2.1939    0.4202 C   0  0  0  0  0  0  0  0  0  0  0  0
   -0.3181   -2.9519    0.7312 O   0  0  0  0  0  0  0  0  0  0  0  0
   -1.0281   -0.9259    0.0662 N   0  0  0  0  0  0  0  0  0  0  0  0
   -1.8301   -0.3519   -0.1548 H   0  0  0  0  0  0  0  0  0  0  0  0
    0.2709   -0.2409    0.0912 C   0  0  1  0  0  0  0  0  0  0  0  0
    0.1378    0.7774   -0.2749 H   0  0  0  0  0  0  0  0  0  0  0  0
    0.7921   -0.1621    1.5320 C   0  0  0  0  0  0  0  0  0  0  0  0
    1.7039    0.4372    1.5503 H   0  0  0  0  0  0  0  0  0  0  0  0
    0.0431    0.3167    2.1652 H   0  0  0  0  0  0  0  0  0  0  0  0
    1.0855   -1.4525    2.0341 O   0  0  0  0  0  0  0  0  0  0  0  0
    1.5677   -1.3514    2.8619 H   0  0  0  0  0  0  0  0  0  0  0  0
    1.2744   -0.9517   -0.8321 C   0  0  0  0  0  0  0  0  0  0  0  0
    2.1624   -1.6564   -0.3510 O   0  0  0  0  0  0  0  0  0  0  0  0
    1.1323   -0.7819   -2.1511 N   0  0  0  0  0  0  0  0  0  0  0  0
    0.4341   -0.1132   -2.4480 H   0  0  0  0  0  0  0  0  0  0  0  0
    1.9836   -1.3999   -3.1658 C   0  0  0  0  0  0  0  0  0  0  0  0
    2.1333   -2.4556   -2.9298 H   0  0  0  0  0  0  0  0  0  0  0  0
    1.5198   -1.3141   -4.1489 H   0  0  0  0  0  0  0  0  0  0  0  0
    2.9562   -0.9037   -3.1797 H   0  0  0  0  0  0  0  0  0  0  0  0
  5  6  2  0  0  0  0
  5  7  1  0  0  0  0
  2  3  1  0  0  0  0
  2  4  1  0  0  0  0
  2  5  1  0  0  0  0
  1  2  1  0  0  0  0
 16 17  2  0  0  0  0
 16 18  1  0  0  0  0
 14 15  1  0  0  0  0
 11 12  1  0  0  0  0
 11 13  1  0  0  0  0
 11 14  1  0  0  0  0
  9 10  1  0  0  0  0
  9 11  1  0  0  0  0
  9 16  1  0  0  0  0
  7  8  1  0  0  0  0
  7  9  1  0  0  0  0
 20 21  1  0  0  0  0
 20 22  1  0  0  0  0
 20 23  1  0  0  0  0
 18 19  1  0  0  0  0
 18 20  1  0  0  0  0
M  END
$$$$
default_name
  -OEChem-01062215323D

 23 22  0     1  0  0  0  0  0999 V2000
   -2.6721   -3.7279    0.7212 H   0  0  0  0  0  0  0  0  0  0  0  0
   -2.6561   -2.6819    0.4162 C   0  0  0  0  0  0  0  0  0  0  0  0
   -3.2401   -2.0889    1.1172 H   0  0  0  0  0  0  0  0  0  0  0  0
   -3.0671   -2.5859   -0.5858 H   0  0  0  0  0  0  0  0  0  0  0  0
   -1.2261   -2.1939    0.4202 C   0  0  0  0  0  0  0  0  0  0  0  0
   -0.3181   -2.9519    0.7312 O   0  0  0  0  0  0  0  0  0  0  0  0
   -1.0281   -0.9259    0.0662 N   0  0  0  0  0  0  0  0  0  0  0  0
   -1.8301   -0.3519   -0.1548 H   0  0  0  0  0  0  0  0  0  0  0  0
    0.2709   -0.2409    0.0912 C   0  0  1  0  0  0  0  0  0  0  0  0
    0.1378    0.7774   -0.2749 H   0  0  0  0  0  0  0  0  0  0  0  0
    0.7921   -0.1621    1.5320 C   0  0  0  0  0  0  0  0  0  0  0  0
    1.7039    0.4372    1.5503 H   0  0  0  0  0  0  0  0  0  0  0  0
    0.0431    0.3167    2.1652 H   0  0  0  0  0  0  0  0  0  0  0  0
    1.0855   -1.4525    2.0341 O   0  0  0  0  0  0  0  0  0  0  0  0
    1.5677   -1.3514    2.8619 H   0  0  0  0  0  0  0  0  0  0  0  0
    1.2744   -0.9517   -0.8321 C   0  0  0  0  0  0  0  0  0  0  0  0
    1.9788   -1.8613   -0.3928 O   0  0  0  0  0  0  0  0  0  0  0  0
    1.3351   -0.5526   -2.1072 N   0  0  0  0  0  0  0  0  0  0  0  0
    0.7871    0.2612   -2.3526 H   0  0  0  0  0  0  0  0  0  0  0  0
    2.2150   -1.1333   -3.1195 C   0  0  0  0  0  0  0  0  0  0  0  0
    2.1772   -2.2232   -3.0611 H   0  0  0  0  0  0  0  0  0  0  0  0
    1.9035   -0.8162   -4.1152 H   0  0  0  0  0  0  0  0  0  0  0  0
    3.2424   -0.8094   -2.9413 H   0  0  0  0  0  0  0  0  0  0  0  0
  5  6  2  0  0  0  0
  5  7  1  0  0  0  0
  2  3  1  0  0  0  0
  2  4  1  0  0  0  0
  2  5  1  0  0  0  0
  1  2  1  0  0  0  0
 16 17  2  0  0  0  0
 16 18  1  0  0  0  0
 14 15  1  0  0  0  0
 11 12  1  0  0  0  0
 11 13  1  0  0  0  0
 11 14  1  0  0  0  0
  9 10  1  0  0  0  0
  9 11  1  0  0  0  0
  9 16  1  0  0  0  0
  7  8  1  0  0  0  0
  7  9  1  0  0  0  0
 20 21  1  0  0  0  0
 20 22  1  0  0  0  0
 20 23  1  0  0  0  0
 18 19  1  0  0  0  0
 18 20  1  0  0  0  0
M  END
$$$$
default_name
  -OEChem-01062215323D

 23 22  0     1  0  0  0  0  0999 V2000
   -2.6721   -3.7279    0.7212 H   0  0  0  0  0  0  0  0  0  0  0  0
   -2.6561   -2.6819    0.4162 C   0  0  0  0  0  0  0  0  0  0  0  0
   -3.2401   -2.0889    1.1172 H   0  0  0  0  0  0  0  0  0  0  0  0
   -3.0671   -2.5859   -0.5858 H   0  0  0  0  0  0  0  0  0  0  0  0
   -1.2261   -2.1939    0.4202 C   0  0  0  0  0  0  0  0  0  0  0  0
   -0.3181   -2.9519    0.7312 O   0  0  0  0  0  0  0  0  0  0  0  0
   -1.0281   -0.9259    0.0662 N   0  0  0  0  0  0  0  0  0  0  0  0
   -1.8301   -0.3519   -0.1548 H   0  0  0  0  0  0  0  0  0  0  0  0
    0.2709   -0.2409    0.0912 C   0  0  1  0  0  0  0  0  0  0  0  0
    0.1378    0.7774   -0.2749 H   0  0  0  0  0  0  0  0  0  0  0  0
    0.7921   -0.1621    1.5320 C   0  0  0  0  0  0  0  0  0  0  0  0
    1.7039    0.4372    1.5503 H   0  0  0  0  0  0  0  0  0  0  0  0
    0.0431    0.3167    2.1652 H   0  0  0  0  0  0  0  0  0  0  0  0
    1.0855   -1.4525    2.0341 O   0  0  0  0  0  0  0  0  0  0  0  0
    1.5677   -1.3514    2.8619 H   0  0  0  0  0  0  0  0  0  0  0  0
    1.2744   -0.9517   -0.8321 C   0  0  0  0  0  0  0  0  0  0  0  0
    1.7746   -2.0237   -0.4898 O   0  0  0  0  0  0  0  0  0  0  0  0
    1.5614   -0.3701   -2.0018 N   0  0  0  0  0  0  0  0  0  0  0  0
    1.1748    0.5518   -2.1550 H   0  0  0  0  0  0  0  0  0  0  0  0
    2.4744   -0.9196   -3.0021 C   0  0  0  0  0  0  0  0  0  0  0  0
    2.2714   -1.9833   -3.1433 H   0  0  0  0  0  0  0  0  0  0  0  0
    2.3474   -0.4006   -3.9526 H   0  0  0  0  0  0  0  0  0  0  0  0
    3.5050   -0.8029   -2.6608 H   0  0  0  0  0  0  0  0  0  0  0  0
  5  6  2  0  0  0  0
  5  7  1  0  0  0  0
  2  3  1  0  0  0  0
  2  4  1  0  0  0  0
  2  5  1  0  0  0  0
  1  2  1  0  0  0  0
 16 17  2  0  0  0  0
 16 18  1  0  0  0  0
 14 15  1  0  0  0  0
 11 12  1  0  0  0  0
 11 13  1  0  0  0  0
 11 14  1  0  0  0  0
  9 10  1  0  0  0  0
  9 11  1  0  0  0  0
  9 16  1  0  0  0  0
  7  8  1  0  0  0  0
  7  9  1  0  0  0  0
 20 21  1  0  0  0  0
 20 22  1  0  0  0  0
 20 23  1  0  0  0  0
 18 19  1  0  0  0  0
 18 20  1  0  0  0  0
M  END
$$$$
default_name
  -OEChem-01062215323D

 23 22  0     1  0  0  0  0  0999 V2000
   -2.6721   -3.7279    0.7212 H   0  0  0  0  0  0  0  0  0  0  0  0
   -2.6561   -2.6819    0.4162 C   0  0  0  0  0  0  0  0  0  0  0  0
   -3.2401   -2.0889    1.1172 H   0  0  0  0  0  0  0  0  0  0  0  0
   -3.0671   -2.5859   -0.5858 H   0  0  0  0  0  0  0  0  0  0  0  0
   -1.2261   -2.1939    0.4202 C   0  0  0  0  0  0  0  0  0  0  0  0
   -0.3181   -2.9519    0.7312 O   0  0  0  0  0  0  0  0  0  0  0  0
   -1.0281   -0.9259    0.0662 N   0  0  0  0  0  0  0  0  0  0  0  0
   -1.8301   -0.3519   -0.1548 H   0  0  0  0  0  0  0  0  0  0  0  0
    0.2709   -0.2409    0.0912 C   0  0  1  0  0  0  0  0  0  0  0  0
    0.1378    0.7774   -0.2749 H   0  0  0  0  0  0  0  0  0  0  0  0
    0.7921   -0.1621    1.5320 C   0  0  0  0  0  0  0  0  0  0  0  0
    1.7039    0.4372    1.5503 H   0  0  0  0  0  0  0  0  0  0  0  0
    0.0431    0.3167    2.1652 H   0  0  0  0  0  0  0  0  0  0  0  0
    1.0855   -1.4525    2.0341 O   0  0  0  0  0  0  0  0  0  0  0  0
    1.5677   -1.3514    2.8619 H   0  0  0  0  0  0  0  0  0  0  0  0
    1.2744   -0.9517   -0.8321 C   0  0  0  0  0  0  0  0  0  0  0  0
    1.5637   -2.1325   -0.6353 O   0  0  0  0  0  0  0  0  0  0  0  0
    1.7957   -0.2468   -1.8420 N   0  0  0  0  0  0  0  0  0  0  0  0
    1.5708    0.7389   -1.8686 H   0  0  0  0  0  0  0  0  0  0  0  0
    2.7441   -0.7733   -2.8216 C   0  0  0  0  0  0  0  0  0  0  0  0
    2.4095   -1.7524   -3.1710 H   0  0  0  0  0  0  0  0  0  0  0  0
    2.8214   -0.0957   -3.6723 H   0  0  0  0  0  0  0  0  0  0  0  0
    3.7262   -0.8849   -2.3573 H   0  0  0  0  0  0  0  0  0  0  0  0
  5  6  2  0  0  0  0
  5  7  1  0  0  0  0
  2  3  1  0  0  0  0
  2  4  1  0  0  0  0
  2  5  1  0  0  0  0
  1  2  1  0  0  0  0
 16 17  2  0  0  0  0
 16 18  1  0  0  0  0
 14 15  1  0  0  0  0
 11 12  1  0  0  0  0
 11 13  1  0  0  0  0
 11 14  1  0  0  0  0
  9 10  1  0  0  0  0
  9 11  1  0  0  0  0
  9 16  1  0  0  0  0
  7  8  1  0  0  0  0
  7  9  1  0  0  0  0
 20 21  1  0  0  0  0
 20 22  1  0  0  0  0
 20 23  1  0  0  0  0
 18 19  1  0  0  0  0
 18 20  1  0  0  0  0
M  END
$$$$
default_name
  -OEChem-01062215323D

 23 22  0     1  0  0  0  0  0999 V2000
   -2.6721   -3.7279    0.7212 H   0  0  0  0  0  0  0  0  0  0  0  0
   -2.6561   -2.6819    0.4162 C   0  0  0  0  0  0  0  0  0  0  0  0
   -3.2401   -2.0889    1.1172 H   0  0  0  0  0  0  0  0  0  0  0  0
   -3.0671   -2.5859   -0.5858 H   0  0  0  0  0  0  0  0  0  0  0  0
   -1.2261   -2.1939    0.4202 C   0  0  0  0  0  0  0  0  0  0  0  0
   -0.3181   -2.9519    0.7312 O   0  0  0  0  0  0  0  0  0  0  0  0
   -1.0281   -0.9259    0.0662 N   0  0  0  0  0  0  0  0  0  0  0  0
   -1.8301   -0.3519   -0.1548 H   0  0  0  0  0  0  0  0  0  0  0  0
    0.2709   -0.2409    0.0912 C   0  0  1  0  0  0  0  0  0  0  0  0
    0.1378    0.7774   -0.2749 H   0  0  0  0  0  0  0  0  0  0  0  0
    0.7921   -0.1621    1.5320 C   0  0  0  0  0  0  0  0  0  0  0  0
    1.7039    0.4372    1.5503 H   0  0  0  0  0  0  0  0  0  0  0  0
    0.0431    0.3167    2.1652 H   0  0  0  0  0  0  0  0  0  0  0  0
    1.0855   -1.4525    2.0341 O   0  0  0  0  0  0  0  0  0  0  0  0
    1.5677   -1.3514    2.8619 H   0  0  0  0  0  0  0  0  0  0  0  0
    1.2744   -0.9517   -0.8321 C   0  0  0  0  0  0  0  0  0  0  0  0
    1.3605   -2.1801   -0.8194 O   0  0  0  0  0  0  0  0  0  0  0  0
    2.0221   -0.1910   -1.6389 N   0  0  0  0  0  0  0  0  0  0  0  0
    1.9482    0.8098   -1.5130 H   0  0  0  0  0  0  0  0  0  0  0  0
    3.0058   -0.7044   -2.5902 C   0  0  0  0  0  0  0  0  0  0  0  0
    2.5822   -1.5461   -3.1422 H   0  0  0  0  0  0  0  0  0  0  0  0
    3.2930    0.0779   -3.2933 H   0  0  0  0  0  0  0  0  0  0  0  0
    3.8907   -1.0498   -2.0516 H   0  0  0  0  0  0  0  0  0  0  0  0
  5  6  2  0  0  0  0
  5  7  1  0  0  0  0
  2  3  1  0  0  0  0
  2  4  1  0  0  0  0
  2  5  1  0  0  0  0
  1  2  1  0  0  0  0
 16 17  2  0  0  0  0
 16 18  1  0  0  0  0
 14 15  1  0  0  0  0
 11 12  1  0  0  0  0
 11 13  1  0  0  0  0
 11 14  1  0  0  0  0
  9 10  1  0  0  0  0
  9 11  1  0  0  0  0
  9 16  1  0  0  0  0
  7  8  1  0  0  0  0
  7  9  1  0  0  0  0
 20 21  1  0  0  0  0
 20 22  1  0  0  0  0
 20 23  1  0  0  0  0
 18 19  1  0  0  0  0
 18 20  1  0  0  0  0
M  END
$$$$
default_name
  -OEChem-01062215323D

 23 22  0     1  0  0  0  0  0999 V2000
   -2.6721   -3.7279    0.7212 H   0  0  0  0  0  0  0  0  0  0  0  0
   -2.6561   -2.6819    0.4162 C   0  0  0  0  0  0  0  0  0  0  0  0
   -3.2401   -2.0889    1.1172 H   0  0  0  0  0  0  0  0  0  0  0  0
   -3.0671   -2.5859   -0.5858 H   0  0  0  0  0  0  0  0  0  0  0  0
   -1.2261   -2.1939    0.4202 C   0  0  0  0  0  0  0  0  0  0  0  0
   -0.3181   -2.9519    0.7312 O   0  0  0  0  0  0  0  0  0  0  0  0
   -1.0281   -0.9259    0.0662 N   0  0  0  0  0  0  0  0  0  0  0  0
   -1.8301   -0.3519   -0.1548 H   0  0  0  0  0  0  0  0  0  0  0  0
    0.2709   -0.2409    0.0912 C   0  0  1  0  0  0  0  0  0  0  0  0
    0.1378    0.7774   -0.2749 H   0  0  0  0  0  0  0  0  0  0  0  0
    0.7921   -0.1621    1.5320 C   0  0  0  0  0  0  0  0  0  0  0  0
    1.7039    0.4372    1.5503 H   0  0  0  0  0  0  0  0  0  0  0  0
    0.0431    0.3167    2.1652 H   0  0  0  0  0  0  0  0  0  0  0  0
    1.0855   -1.4525    2.0341 O   0  0  0  0  0  0  0  0  0  0  0  0
    1.5677   -1.3514    2.8619 H   0  0  0  0  0  0  0  0  0  0  0  0
    1.2744   -0.9517   -0.8321 C   0  0  0  0  0  0  0  0  0  0  0  0
    1.1788   -2.1635   -1.0296 O   0  0  0  0  0  0  0  0  0  0  0  0
    2.2251   -0.2066   -1.4062 N   0  0  0  0  0  0  0  0  0  0  0  0
    2.2812    0.7595   -1.1123 H   0  0  0  0  0  0  0  0  0  0  0  0
    3.2416   -0.7176   -2.3238 C   0  0  0  0  0  0  0  0  0  0  0  0
    2.7775   -1.3785   -3.0589 H   0  0  0  0  0  0  0  0  0  0  0  0
    3.7303    0.1083   -2.8415 H   0  0  0  0  0  0  0  0  0  0  0  0
    3.9874   -1.2862   -1.7645 H   0  0  0  0  0  0  0  0  0  0  0  0
  5  6  2  0  0  0  0
  5  7  1  0  0  0  0
  2  3  1  0  0  0  0
  2  4  1  0  0  0  0
  2  5  1  0  0  0  0
  1  2  1  0  0  0  0
 16 17  2  0  0  0  0
 16 18  1  0  0  0  0
 14 15  1  0  0  0  0
 11 12  1  0  0  0  0
 11 13  1  0  0  0  0
 11 14  1  0  0  0  0
  9 10  1  0  0  0  0
  9 11  1  0  0  0  0
  9 16  1  0  0  0  0
  7  8  1  0  0  0  0
  7  9  1  0  0  0  0
 20 21  1  0  0  0  0
 20 22  1  0  0  0  0
 20 23  1  0  0  0  0
 18 19  1  0  0  0  0
 18 20  1  0  0  0  0
M  END
$$$$
default_name
  -OEChem-01062215323D

 23 22  0     1  0  0  0  0  0999 V2000
   -2.6721   -3.7279    0.7212 H   0  0  0  0  0  0  0  0  0  0  0  0
   -2.6561   -2.6819    0.4162 C   0  0  0  0  0  0  0  0  0  0  0  0
   -3.2401   -2.0889    1.1172 H   0  0  0  0  0  0  0  0  0  0  0  0
   -3.0671   -2.5859   -0.5858 H   0  0  0  0  0  0  0  0  0  0  0  0
   -1.2261   -2.1939    0.4202 C   0  0  0  0  0  0  0  0  0  0  0  0
   -0.3181   -2.9519    0.7312 O   0  0  0  0  0  0  0  0  0  0  0  0
   -1.0281   -0.9259    0.0662 N   0  0  0  0  0  0  0  0  0  0  0  0
   -1.8301   -0.3519   -0.1548 H   0  0  0  0  0  0  0  0  0  0  0  0
    0.2709   -0.2409    0.0912 C   0  0  1  0  0  0  0  0  0  0  0  0
    0.1378    0.7774   -0.2749 H   0  0  0  0  0  0  0  0  0  0  0  0
    0.7921   -0.1621    1.5320 C   0  0  0  0  0  0  0  0  0  0  0  0
    1.7039    0.4372    1.5503 H   0  0  0  0  0  0  0  0  0  0  0  0
    0.0431    0.3167    2.1652 H   0  0  0  0  0  0  0  0  0  0  0  0
    1.0855   -1.4525    2.0341 O   0  0  0  0  0  0  0  0  0  0  0  0
    1.5677   -1.3514    2.8619 H   0  0  0  0  0  0  0  0  0  0  0  0
    1.2744   -0.9517   -0.8321 C   0  0  0  0  0  0  0  0  0  0  0  0
    1.0311   -2.0837   -1.2516 O   0  0  0  0  0  0  0  0  0  0  0  0
    2.3910   -0.2926   -1.1598 N   0  0  0  0  0  0  0  0  0  0  0  0
    2.5471    0.5915   -0.6940 H   0  0  0  0  0  0  0  0  0  0  0  0
    3.4355   -0.8119   -2.0404 C   0  0  0  0  0  0  0  0  0  0  0  0
    2.9823   -1.2611   -2.9268 H   0  0  0  0  0  0  0  0  0  0  0  0
    4.1033   -0.0066   -2.3477 H   0  0  0  0  0  0  0  0  0  0  0  0
    4.0098   -1.5781   -1.5155 H   0  0  0  0  0  0  0  0  0  0  0  0
  5  6  2  0  0  0  0
  5  7  1  0  0  0  0
  2  3  1  0  0  0  0
  2  4  1  0  0  0  0
  2  5  1  0  0  0  0
  1  2  1  0  0  0  0
 16 17  2  0  0  0  0
 16 18  1  0  0  0  0
 14 15  1  0  0  0  0
 11 12  1  0  0  0  0
 11 13  1  0  0  0  0
 11 14  1  0  0  0  0
  9 10  1  0  0  0  0
  9 11  1  0  0  0  0
  9 16  1  0  0  0  0
  7  8  1  0  0  0  0
  7  9  1  0  0  0  0
 20 21  1  0  0  0  0
 20 22  1  0  0  0  0
 20 23  1  0  0  0  0
 18 19  1  0  0  0  0
 18 20  1  0  0  0  0
M  END
$$$$
default_name
  -OEChem-01062215323D

 23 22  0     1  0  0  0  0  0999 V2000
   -2.6721   -3.7279    0.7212 H   0  0  0  0  0  0  0  0  0  0  0  0
   -2.6561   -2.6819    0.4162 C   0  0  0  0  0  0  0  0  0  0  0  0
   -3.2401   -2.0889    1.1172 H   0  0  0  0  0  0  0  0  0  0  0  0
   -3.0671   -2.5859   -0.5858 H   0  0  0  0  0  0  0  0  0  0  0  0
   -1.2261   -2.1939    0.4202 C   0  0  0  0  0  0  0  0  0  0  0  0
   -0.3181   -2.9519    0.7312 O   0  0  0  0  0  0  0  0  0  0  0  0
   -1.0281   -0.9259    0.0662 N   0  0  0  0  0  0  0  0  0  0  0  0
   -1.8301   -0.3519   -0.1548 H   0  0  0  0  0  0  0  0  0  0  0  0
    0.2709   -0.2409    0.0912 C   0  0  1  0  0  0  0  0  0  0  0  0
    0.1042    0.8315   -0.0131 H   0  0  0  0  0  0  0  0  0  0  0  0
    0.9637   -0.4840    1.4383 C   0  0  0  0  0  0  0  0  0  0  0  0
    1.8767    0.1120    1.4837 H   0  0  0  0  0  0  0  0  0  0  0  0
    0.3016   -0.1766    2.2497 H   0  0  0  0  0  0  0  0  0  0  0  0
    1.3033   -1.8493    1.5923 O   0  0  0  0  0  0  0  0  0  0  0  0
    1.8832   -1.9313    2.3571 H   0  0  0  0  0  0  0  0  0  0  0  0
    1.1481   -0.7031   -1.0842 C   0  0  0  0  0  0  0  0  0  0  0  0
    0.7167   -1.5316   -1.8868 O   0  0  0  0  0  0  0  0  0  0  0  0
    2.3677   -0.1660   -1.1973 N   0  0  0  0  0  0  0  0  0  0  0  0
    2.6691    0.4341   -0.4411 H   0  0  0  0  0  0  0  0  0  0  0  0
    3.3181   -0.4772   -2.2631 C   0  0  0  0  0  0  0  0  0  0  0  0
    2.8066   -0.4717   -3.2280 H   0  0  0  0  0  0  0  0  0  0  0  0
    4.1211    0.2603   -2.2783 H   0  0  0  0  0  0  0  0  0  0  0  0
    3.7416   -1.4701   -2.0979 H   0  0  0  0  0  0  0  0  0  0  0  0
  5  6  2  0  0  0  0
  5  7  1  0  0  0  0
  2  3  1  0  0  0  0
  2  4  1  0  0  0  0
  2  5  1  0  0  0  0
  1  2  1  0  0  0  0
 16 17  2  0  0  0  0
 16 18  1  0  0  0  0
 14 15  1  0  0  0  0
 11 12  1  0  0  0  0
 11 13  1  0  0  0  0
 11 14  1  0  0  0  0
  9 10  1  0  0  0  0
  9 11  1  0  0  0  0
  9 16  1  0  0  0  0
  7  8  1  0  0  0  0
  7  9  1  0  0  0  0
 20 21  1  0  0  0  0
 20 22  1  0  0  0  0
 20 23  1  0  0  0  0
 18 19  1  0  0  0  0
 18 20  1  0  0  0  0
M  END
$$$$
default_name
  -OEChem-01062215323D

 23 22  0     1  0  0  0  0  0999 V2000
   -2.6721   -3.7279    0.7212 H   0  0  0  0  0  0  0  0  0  0  0  0
   -2.6561   -2.6819    0.4162 C   0  0  0  0  0  0  0  0  0  0  0  0
   -3.2401   -2.0889    1.1172 H   0  0  0  0  0  0  0  0  0  0  0  0
   -3.0671   -2.5859   -0.5858 H   0  0  0  0  0  0  0  0  0  0  0  0
   -1.2261   -2.1939    0.4202 C   0  0  0  0  0  0  0  0  0  0  0  0
   -0.3181   -2.9519    0.7312 O   0  0  0  0  0  0  0  0  0  0  0  0
   -1.0281   -0.9259    0.0662 N   0  0  0  0  0  0  0  0  0  0  0  0
   -1.8301   -0.3519   -0.1548 H   0  0  0  0  0  0  0  0  0  0  0  0
    0.2709   -0.2409    0.0912 C   0  0  1  0  0  0  0  0  0  0  0  0
    0.1042    0.8315   -0.0131 H   0  0  0  0  0  0  0  0  0  0  0  0
    0.9637   -0.4840    1.4383 C   0  0  0  0  0  0  0  0  0  0  0  0
    1.8767    0.1120    1.4837 H   0  0  0  0  0  0  0  0  0  0  0  0
    0.3016   -0.1766    2.2497 H   0  0  0  0  0  0  0  0  0  0  0  0
    1.3033   -1.8493    1.5923 O   0  0  0  0  0  0  0  0  0  0  0  0
    1.8832   -1.9313    2.3571 H   0  0  0  0  0  0  0  0  0  0  0  0
    1.1481   -0.7031   -1.0842 C   0  0  0  0  0  0  0  0  0  0  0  0
    0.6419   -1.3059   -2.0314 O   0  0  0  0  0  0  0  0  0  0  0  0
    2.4532   -0.4152   -1.0355 N   0  0  0  0  0  0  0  0  0  0  0  0
    2.7929   -0.0008   -0.1777 H   0  0  0  0  0  0  0  0  0  0  0  0
    3.4209   -0.7613   -2.0748 C   0  0  0  0  0  0  0  0  0  0  0  0
    3.0115   -0.5169   -3.0573 H   0  0  0  0  0  0  0  0  0  0  0  0
    4.3484   -0.2081   -1.9245 H   0  0  0  0  0  0  0  0  0  0  0  0
    3.6286   -1.8328   -2.0396 H   0  0  0  0  0  0  0  0  0  0  0  0
  5  6  2  0  0  0  0
  5  7  1  0  0  0  0
  2  3  1  0  0  0  0
  2  4  1  0  0  0  0
  2  5  1  0  0  0  0
  1  2  1  0  0  0  0
 16 17  2  0  0  0  0
 16 18  1  0  0  0  0
 14 15  1  0  0  0  0
 11 12  1  0  0  0  0
 11 13  1  0  0  0  0
 11 14  1  0  0  0  0
  9 10  1  0  0  0  0
  9 11  1  0  0  0  0
  9 16  1  0  0  0  0
  7  8  1  0  0  0  0
  7  9  1  0  0  0  0
 20 21  1  0  0  0  0
 20 22  1  0  0  0  0
 20 23  1  0  0  0  0
 18 19  1  0  0  0  0
 18 20  1  0  0  0  0
M  END
$$$$
default_name
  -OEChem-01062215323D

 23 22  0     1  0  0  0  0  0999 V2000
   -2.6721   -3.7279    0.7212 H   0  0  0  0  0  0  0  0  0  0  0  0
   -2.6561   -2.6819    0.4162 C   0  0  0  0  0  0  0  0  0  0  0  0
   -3.2401   -2.0889    1.1172 H   0  0  0  0  0  0  0  0  0  0  0  0
   -3.0671   -2.5859   -0.5858 H   0  0  0  0  0  0  0  0  0  0  0  0
   -1.2261   -2.1939    0.4202 C   0  0  0  0  0  0  0  0  0  0  0  0
   -0.3181   -2.9519    0.7312 O   0  0  0  0  0  0  0  0  0  0  0  0
   -1.0281   -0.9259    0.0662 N   0  0  0  0  0  0  0  0  0  0  0  0
   -1.8301   -0.3519   -0.1548 H   0  0  0  0  0  0  0  0  0  0  0  0
    0.2709   -0.2409    0.0912 C   0  0  1  0  0  0  0  0  0  0  0  0
    0.1042    0.8315   -0.0131 H   0  0  0  0  0  0  0  0  0  0  0  0
    0.9637   -0.4840    1.4383 C   0  0  0  0  0  0  0  0  0  0  0  0
    1.8767    0.1120    1.4837 H   0  0  0  0  0  0  0  0  0  0  0  0
    0.3016   -0.1766    2.2497 H   0  0  0  0  0  0  0  0  0  0  0  0
    1.3033   -1.8493    1.5923 O   0  0  0  0  0  0  0  0  0  0  0  0
    1.8832   -1.9313    2.3571 H   0  0  0  0  0  0  0  0  0  0  0  0
    1.1481   -0.7031   -1.0842 C   0  0  0  0  0  0  0  0  0  0  0  0
    0.6256   -1.0516   -2.1435 O   0  0  0  0  0  0  0  0  0  0  0  0
    2.4740   -0.6967   -0.9093 N   0  0  0  0  0  0  0  0  0  0  0  0
    2.8059   -0.4843    0.0222 H   0  0  0  0  0  0  0  0  0  0  0  0
    3.4492   -1.0839   -1.9267 C   0  0  0  0  0  0  0  0  0  0  0  0
    3.1873   -0.6263   -2.8831 H   0  0  0  0  0  0  0  0  0  0  0  0
    4.4477   -0.7577   -1.6342 H   0  0  0  0  0  0  0  0  0  0  0  0
    3.4433   -2.1694   -2.0456 H   0  0  0  0  0  0  0  0  0  0  0  0
  5  6  2  0  0  0  0
  5  7  1  0  0  0  0
  2  3  1  0  0  0  0
  2  4  1  0  0  0  0
  2  5  1  0  0  0  0
  1  2  1  0  0  0  0
 16 17  2  0  0  0  0
 16 18  1  0  0  0  0
 14 15  1  0  0  0  0
 11 12  1  0  0  0  0
 11 13  1  0  0  0  0
 11 14  1  0  0  0  0
  9 10  1  0  0  0  0
  9 11  1  0  0  0  0
  9 16  1  0  0  0  0
  7  8  1  0  0  0  0
  7  9  1  0  0  0  0
 20 21  1  0  0  0  0
 20 22  1  0  0  0  0
 20 23  1  0  0  0  0
 18 19  1  0  0  0  0
 18 20  1  0  0  0  0
M  END
$$$$
default_name
  -OEChem-01062215323D

 23 22  0     1  0  0  0  0  0999 V2000
   -2.6721   -3.7279    0.7212 H   0  0  0  0  0  0  0  0  0  0  0  0
   -2.6561   -2.6819    0.4162 C   0  0  0  0  0  0  0  0  0  0  0  0
   -3.2401   -2.0889    1.1172 H   0  0  0  0  0  0  0  0  0  0  0  0
   -3.0671   -2.5859   -0.5858 H   0  0  0  0  0  0  0  0  0  0  0  0
   -1.2261   -2.1939    0.4202 C   0  0  0  0  0  0  0  0  0  0  0  0
   -0.3181   -2.9519    0.7312 O   0  0  0  0  0  0  0  0  0  0  0  0
   -1.0281   -0.9259    0.0662 N   0  0  0  0  0  0  0  0  0  0  0  0
   -1.8301   -0.3519   -0.1548 H   0  0  0  0  0  0  0  0  0  0  0  0
    0.2709   -0.2409    0.0912 C   0  0  1  0  0  0  0  0  0  0  0  0
    0.1042    0.8315   -0.0131 H   0  0  0  0  0  0  0  0  0  0  0  0
    0.9637   -0.4840    1.4383 C   0  0  0  0  0  0  0  0  0  0  0  0
    1.8767    0.1120    1.4837 H   0  0  0  0  0  0  0  0  0  0  0  0
    0.3016   -0.1766    2.2497 H   0  0  0  0  0  0  0  0  0  0  0  0
    1.3033   -1.8493    1.5923 O   0  0  0  0  0  0  0  0  0  0  0  0
    1.8832   -1.9313    2.3571 H   0  0  0  0  0  0  0  0  0  0  0  0
    1.1481   -0.7031   -1.0842 C   0  0  0  0  0  0  0  0  0  0  0  0
    0.6689   -0.7863   -2.2156 O   0  0  0  0  0  0  0  0  0  0  0  0
    2.4285   -0.9914   -0.8273 N   0  0  0  0  0  0  0  0  0  0  0  0
    2.7073   -0.9835    0.1449 H   0  0  0  0  0  0  0  0  0  0  0  0
    3.4013   -1.4230   -1.8292 C   0  0  0  0  0  0  0  0  0  0  0  0
    3.3218   -0.7925   -2.7174 H   0  0  0  0  0  0  0  0  0  0  0  0
    4.4123   -1.3512   -1.4273 H   0  0  0  0  0  0  0  0  0  0  0  0
    3.1981   -2.4569   -2.1155 H   0  0  0  0  0  0  0  0  0  0  0  0
  5  6  2  0  0  0  0
  5  7  1  0  0  0  0
  2  3  1  0  0  0  0
  2  4  1  0  0  0  0
  2  5  1  0  0  0  0
  1  2  1  0  0  0  0
 16 17  2  0  0  0  0
 16 18  1  0  0  0  0
 14 15  1  0  0  0  0
 11 12  1  0  0  0  0
 11 13  1  0  0  0  0
 11 14  1  0  0  0  0
  9 10  1  0  0  0  0
  9 11  1  0  0  0  0
  9 16  1  0  0  0  0
  7  8  1  0  0  0  0
  7  9  1  0  0  0  0
 20 21  1  0  0  0  0
 20 22  1  0  0  0  0
 20 23  1  0  0  0  0
 18 19  1  0  0  0  0
 18 20  1  0  0  0  0
M  END
$$$$
default_name
  -OEChem-01062215323D

 23 22  0     1  0  0  0  0  0999 V2000
   -2.6721   -3.7279    0.7212 H   0  0  0  0  0  0  0  0  0  0  0  0
   -2.6561   -2.6819    0.4162 C   0  0  0  0  0  0  0  0  0  0  0  0
   -3.2401   -2.0889    1.1172 H   0  0  0  0  0  0  0  0  0  0  0  0
   -3.0671   -2.5859   -0.5858 H   0  0  0  0  0  0  0  0  0  0  0  0
   -1.2261   -2.1939    0.4202 C   0  0  0  0  0  0  0  0  0  0  0  0
   -0.3181   -2.9519    0.7312 O   0  0  0  0  0  0  0  0  0  0  0  0
   -1.0281   -0.9259    0.0662 N   0  0  0  0  0  0  0  0  0  0  0  0
   -1.8301   -0.3519   -0.1548 H   0  0  0  0  0  0  0  0  0  0  0  0
    0.2709   -0.2409    0.0912 C   0  0  1  0  0  0  0  0  0  0  0  0
    0.1042    0.8315   -0.0131 H   0  0  0  0  0  0  0  0  0  0  0  0
    0.9637   -0.4840    1.4383 C   0  0  0  0  0  0  0  0  0  0  0  0
    1.8767    0.1120    1.4837 H   0  0  0  0  0  0  0  0  0  0  0  0
    0.3016   -0.1766    2.2497 H   0  0  0  0  0  0  0  0  0  0  0  0
    1.3033   -1.8493    1.5923 O   0  0  0  0  0  0  0  0  0  0  0  0
    1.8832   -1.9313    2.3571 H   0  0  0  0  0  0  0  0  0  0  0  0
    1.1481   -0.7031   -1.0842 C   0  0  0  0  0  0  0  0  0  0  0  0
    0.7687   -0.5279   -2.2427 O   0  0  0  0  0  0  0  0  0  0  0  0
    2.3200   -1.2792   -0.7952 N   0  0  0  0  0  0  0  0  0  0  0  0
    2.5038   -1.4642    0.1820 H   0  0  0  0  0  0  0  0  0  0  0  0
    3.2803   -1.7554   -1.7888 C   0  0  0  0  0  0  0  0  0  0  0  0
    3.4060   -1.0041   -2.5713 H   0  0  0  0  0  0  0  0  0  0  0  0
    4.2447   -1.9479   -1.3178 H   0  0  0  0  0  0  0  0  0  0  0  0
    2.9098   -2.6759   -2.2446 H   0  0  0  0  0  0  0  0  0  0  0  0
  5  6  2  0  0  0  0
  5  7  1  0  0  0  0
  2  3  1  0  0  0  0
  2  4  1  0  0  0  0
  2  5  1  0  0  0  0
  1  2  1  0  0  0  0
 16 17  2  0  0  0  0
 16 18  1  0  0  0  0
 14 15  1  0  0  0  0
 11 12  1  0  0  0  0
 11 13  1  0  0  0  0
 11 14  1  0  0  0  0
  9 10  1  0  0  0  0
  9 11  1  0  0  0  0
  9 16  1  0  0  0  0
  7  8  1  0  0  0  0
  7  9  1  0  0  0  0
 20 21  1  0  0  0  0
 20 22  1  0  0  0  0
 20 23  1  0  0  0  0
 18 19  1  0  0  0  0
 18 20  1  0  0  0  0
M  END
$$$$
default_name
  -OEChem-01062215323D

 23 22  0     1  0  0  0  0  0999 V2000
   -2.6721   -3.7279    0.7212 H   0  0  0  0  0  0  0  0  0  0  0  0
   -2.6561   -2.6819    0.4162 C   0  0  0  0  0  0  0  0  0  0  0  0
   -3.2401   -2.0889    1.1172 H   0  0  0  0  0  0  0  0  0  0  0  0
   -3.0671   -2.5859   -0.5858 H   0  0  0  0  0  0  0  0  0  0  0  0
   -1.2261   -2.1939    0.4202 C   0  0  0  0  0  0  0  0  0  0  0  0
   -0.3181   -2.9519    0.7312 O   0  0  0  0  0  0  0  0  0  0  0  0
   -1.0281   -0.9259    0.0662 N   0  0  0  0  0  0  0  0  0  0  0  0
   -1.8301   -0.3519   -0.1548 H   0  0  0  0  0  0  0  0  0  0  0  0
    0.2709   -0.2409    0.0912 C   0  0  1  0  0  0  0  0  0  0  0  0
    0.1042    0.8315   -0.0131 H   0  0  0  0  0  0  0  0  0  0  0  0
    0.9637   -0.4840    1.4383 C   0  0  0  0  0  0  0  0  0  0  0  0
    1.8767    0.1120    1.4837 H   0  0  0  0  0  0  0  0  0  0  0  0
    0.3016   -0.1766    2.2497 H   0  0  0  0  0  0  0  0  0  0  0  0
    1.3033   -1.8493    1.5923 O   0  0  0  0  0  0  0  0  0  0  0  0
    1.8832   -1.9313    2.3571 H   0  0  0  0  0  0  0  0  0  0  0  0
    1.1481   -0.7031   -1.0842 C   0  0  0  0  0  0  0  0  0  0  0  0
    0.9184   -0.2941   -2.2229 O   0  0  0  0  0  0  0  0  0  0  0  0
    2.1557   -1.5404   -0.8151 N   0  0  0  0  0  0  0  0  0  0  0  0
    2.2092   -1.8937    0.1310 H   0  0  0  0  0  0  0  0  0  0  0  0
    3.0946   -2.0585   -1.8082 C   0  0  0  0  0  0  0  0  0  0  0  0
    3.4341   -1.2466   -2.4550 H   0  0  0  0  0  0  0  0  0  0  0  0
    3.9561   -2.5073   -1.3131 H   0  0  0  0  0  0  0  0  0  0  0  0
    2.5981   -2.8113   -2.4240 H   0  0  0  0  0  0  0  0  0  0  0  0
  5  6  2  0  0  0  0
  5  7  1  0  0  0  0
  2  3  1  0  0  0  0
  2  4  1  0  0  0  0
  2  5  1  0  0  0  0
  1  2  1  0  0  0  0
 16 17  2  0  0  0  0
 16 18  1  0  0  0  0
 14 15  1  0  0  0  0
 11 12  1  0  0  0  0
 11 13  1  0  0  0  0
 11 14  1  0  0  0  0
  9 10  1  0  0  0  0
  9 11  1  0  0  0  0
  9 16  1  0  0  0  0
  7  8  1  0  0  0  0
  7  9  1  0  0  0  0
 20 21  1  0  0  0  0
 20 22  1  0  0  0  0
 20 23  1  0  0  0  0
 18 19  1  0  0  0  0
 18 20  1  0  0  0  0
M  END
$$$$
default_name
  -OEChem-01062215323D

 23 22  0     1  0  0  0  0  0999 V2000
   -2.6721   -3.7279    0.7212 H   0  0  0  0  0  0  0  0  0  0  0  0
   -2.6561   -2.6819    0.4162 C   0  0  0  0  0  0  0  0  0  0  0  0
   -3.2401   -2.0889    1.1172 H   0  0  0  0  0  0  0  0  0  0  0  0
   -3.0671   -2.5859   -0.5858 H   0  0  0  0  0  0  0  0  0  0  0  0
   -1.2261   -2.1939    0.4202 C   0  0  0  0  0  0  0  0  0  0  0  0
   -0.3181   -2.9519    0.7312 O   0  0  0  0  0  0  0  0  0  0  0  0
   -1.0281   -0.9259    0.0662 N   0  0  0  0  0  0  0  0  0  0  0  0
   -1.8301   -0.3519   -0.1548 H   0  0  0  0  0  0  0  0  0  0  0  0
    0.2709   -0.2409    0.0912 C   0  0  1  0  0  0  0  0  0  0  0  0
    0.1042    0.8315   -0.0131 H   0  0  0  0  0  0  0  0  0  0  0  0
    0.9637   -0.4840    1.4383 C   0  0  0  0  0  0  0  0  0  0  0  0
    1.8767    0.1120    1.4837 H   0  0  0  0  0  0  0  0  0  0  0  0
    0.3016   -0.1766    2.2497 H   0  0  0  0  0  0  0  0  0  0  0  0
    1.3033   -1.8493    1.5923 O   0  0  0  0  0  0  0  0  0  0  0  0
    1.8832   -1.9313    2.3571 H   0  0  0  0  0  0  0  0  0  0  0  0
    1.1481   -0.7031   -1.0842 C   0  0  0  0  0  0  0  0  0  0  0  0
    1.1077   -0.1007   -2.1577 O   0  0  0  0  0  0  0  0  0  0  0  0
    1.9468   -1.7572   -0.8857 N   0  0  0  0  0  0  0  0  0  0  0  0
    1.8436   -2.2428   -0.0045 H   0  0  0  0  0  0  0  0  0  0  0  0
    2.8567   -2.3117   -1.8862 C   0  0  0  0  0  0  0  0  0  0  0  0
    3.4042   -1.5037   -2.3762 H   0  0  0  0  0  0  0  0  0  0  0  0
    3.5664   -2.9913   -1.4137 H   0  0  0  0  0  0  0  0  0  0  0  0
    2.2842   -2.8539   -2.6415 H   0  0  0  0  0  0  0  0  0  0  0  0
  5  6  2  0  0  0  0
  5  7  1  0  0  0  0
  2  3  1  0  0  0  0
  2  4  1  0  0  0  0
  2  5  1  0  0  0  0
  1  2  1  0  0  0  0
 16 17  2  0  0  0  0
 16 18  1  0  0  0  0
 14 15  1  0  0  0  0
 11 12  1  0  0  0  0
 11 13  1  0  0  0  0
 11 14  1  0  0  0  0
  9 10  1  0  0  0  0
  9 11  1  0  0  0  0
  9 16  1  0  0  0  0
  7  8  1  0  0  0  0
  7  9  1  0  0  0  0
 20 21  1  0  0  0  0
 20 22  1  0  0  0  0
 20 23  1  0  0  0  0
 18 19  1  0  0  0  0
 18 20  1  0  0  0  0
M  END
$$$$
default_name
  -OEChem-01062215323D

 23 22  0     1  0  0  0  0  0999 V2000
   -2.6721   -3.7279    0.7212 H   0  0  0  0  0  0  0  0  0  0  0  0
   -2.6561   -2.6819    0.4162 C   0  0  0  0  0  0  0  0  0  0  0  0
   -3.2401   -2.0889    1.1172 H   0  0  0  0  0  0  0  0  0  0  0  0
   -3.0671   -2.5859   -0.5858 H   0  0  0  0  0  0  0  0  0  0  0  0
   -1.2261   -2.1939    0.4202 C   0  0  0  0  0  0  0  0  0  0  0  0
   -0.3181   -2.9519    0.7312 O   0  0  0  0  0  0  0  0  0  0  0  0
   -1.0281   -0.9259    0.0662 N   0  0  0  0  0  0  0  0  0  0  0  0
   -1.8301   -0.3519   -0.1548 H   0  0  0  0  0  0  0  0  0  0  0  0
    0.2709   -0.2409    0.0912 C   0  0  1  0  0  0  0  0  0  0  0  0
    0.1042    0.8315   -0.0131 H   0  0  0  0  0  0  0  0  0  0  0  0
    0.9637   -0.4840    1.4383 C   0  0  0  0  0  0  0  0  0  0  0  0
    1.8767    0.1120    1.4837 H   0  0  0  0  0  0  0  0  0  0  0  0
    0.3016   -0.1766    2.2497 H   0  0  0  0  0  0  0  0  0  0  0  0
    1.3033   -1.8493    1.5923 O   0  0  0  0  0  0  0  0  0  0  0  0
    1.8832   -1.9313    2.3571 H   0  0  0  0  0  0  0  0  0  0  0  0
    1.1481   -0.7031   -1.0842 C   0  0  0  0  0  0  0  0  0  0  0  0
    1.3237    0.0389   -2.0513 O   0  0  0  0  0  0  0  0  0  0  0  0
    1.7077   -1.9150   -1.0021 N   0  0  0  0  0  0  0  0  0  0  0  0
    1.4320   -2.4877   -0.2155 H   0  0  0  0  0  0  0  0  0  0  0  0
    2.5829   -2.4976   -2.0174 C   0  0  0  0  0  0  0  0  0  0  0  0
    3.3184   -1.7577   -2.3404 H   0  0  0  0  0  0  0  0  0  0  0  0
    3.1021   -3.3668   -1.6126 H   0  0  0  0  0  0  0  0  0  0  0  0
    1.9894   -2.8009   -2.8824 H   0  0  0  0  0  0  0  0  0  0  0  0
  5  6  2  0  0  0  0
  5  7  1  0  0  0  0
  2  3  1  0  0  0  0
  2  4  1  0  0  0  0
  2  5  1  0  0  0  0
  1  2  1  0  0  0  0
 16 17  2  0  0  0  0
 16 18  1  0  0  0  0
 14 15  1  0  0  0  0
 11 12  1  0  0  0  0
 11 13  1  0  0  0  0
 11 14  1  0  0  0  0
  9 10  1  0  0  0  0
  9 11  1  0  0  0  0
  9 16  1  0  0  0  0
  7  8  1  0  0  0  0
  7  9  1  0  0  0  0
 20 21  1  0  0  0  0
 20 22  1  0  0  0  0
 20 23  1  0  0  0  0
 18 19  1  0  0  0  0
 18 20  1  0  0  0  0
M  END
$$$$
default_name
  -OEChem-01062215323D

 23 22  0     1  0  0  0  0  0999 V2000
   -2.6721   -3.7279    0.7212 H   0  0  0  0  0  0  0  0  0  0  0  0
   -2.6561   -2.6819    0.4162 C   0  0  0  0  0  0  0  0  0  0  0  0
   -3.2401   -2.0889    1.1172 H   0  0  0  0  0  0  0  0  0  0  0  0
   -3.0671   -2.5859   -0.5858 H   0  0  0  0  0  0  0  0  0  0  0  0
   -1.2261   -2.1939    0.4202 C   0  0  0  0  0  0  0  0  0  0  0  0
   -0.3181   -2.9519    0.7312 O   0  0  0  0  0  0  0  0  0  0  0  0
   -1.0281   -0.9259    0.0662 N   0  0  0  0  0  0  0  0  0  0  0  0
   -1.8301   -0.3519   -0.1548 H   0  0  0  0  0  0  0  0  0  0  0  0
    0.2709   -0.2409    0.0912 C   0  0  1  0  0  0  0  0  0  0  0  0
    0.1042    0.8315   -0.0131 H   0  0  0  0  0  0  0  0  0  0  0  0
    0.9637   -0.4840    1.4383 C   0  0  0  0  0  0  0  0  0  0  0  0
    1.8767    0.1120    1.4837 H   0  0  0  0  0  0  0  0  0  0  0  0
    0.3016   -0.1766    2.2497 H   0  0  0  0  0  0  0  0  0  0  0  0
    1.3033   -1.8493    1.5923 O   0  0  0  0  0  0  0  0  0  0  0  0
    1.8832   -1.9313    2.3571 H   0  0  0  0  0  0  0  0  0  0  0  0
    1.1481   -0.7031   -1.0842 C   0  0  0  0  0  0  0  0  0  0  0  0
    1.5518    0.1154   -1.9112 O   0  0  0  0  0  0  0  0  0  0  0  0
    1.4546   -2.0029   -1.1565 N   0  0  0  0  0  0  0  0  0  0  0  0
    1.0024   -2.6117   -0.4874 H   0  0  0  0  0  0  0  0  0  0  0  0
    2.2919   -2.6037   -2.1929 C   0  0  0  0  0  0  0  0  0  0  0  0
    3.1824   -1.9914   -2.3500 H   0  0  0  0  0  0  0  0  0  0  0  0
    2.5947   -3.6083   -1.8963 H   0  0  0  0  0  0  0  0  0  0  0  0
    1.7339   -2.6558   -3.1301 H   0  0  0  0  0  0  0  0  0  0  0  0
  5  6  2  0  0  0  0
  5  7  1  0  0  0  0
  2  3  1  0  0  0  0
  2  4  1  0  0  0  0
  2  5  1  0  0  0  0
  1  2  1  0  0  0  0
 16 17  2  0  0  0  0
 16 18  1  0  0  0  0
 14 15  1  0  0  0  0
 11 12  1  0  0  0  0
 11 13  1  0  0  0  0
 11 14  1  0  0  0  0
  9 10  1  0  0  0  0
  9 11  1  0  0  0  0
  9 16  1  0  0  0  0
  7  8  1  0  0  0  0
  7  9  1  0  0  0  0
 20 21  1  0  0  0  0
 20 22  1  0  0  0  0
 20 23  1  0  0  0  0
 18 19  1  0  0  0  0
 18 20  1  0  0  0  0
M  END
$$$$
default_name
  -OEChem-01062215323D

 23 22  0     1  0  0  0  0  0999 V2000
   -2.6721   -3.7279    0.7212 H   0  0  0  0  0  0  0  0  0  0  0  0
   -2.6561   -2.6819    0.4162 C   0  0  0  0  0  0  0  0  0  0  0  0
   -3.2401   -2.0889    1.1172 H   0  0  0  0  0  0  0  0  0  0  0  0
   -3.0671   -2.5859   -0.5858 H   0  0  0  0  0  0  0  0  0  0  0  0
   -1.2261   -2.1939    0.4202 C   0  0  0  0  0  0  0  0  0  0  0  0
   -0.3181   -2.9519    0.7312 O   0  0  0  0  0  0  0  0  0  0  0  0
   -1.0281   -0.9259    0.0662 N   0  0  0  0  0  0  0  0  0  0  0  0
   -1.8301   -0.3519   -0.1548 H   0  0  0  0  0  0  0  0  0  0  0  0
    0.2709   -0.2409    0.0912 C   0  0  1  0  0  0  0  0  0  0  0  0
    0.1042    0.8315   -0.0131 H   0  0  0  0  0  0  0  0  0  0  0  0
    0.9637   -0.4840    1.4383 C   0  0  0  0  0  0  0  0  0  0  0  0
    1.8767    0.1120    1.4837 H   0  0  0  0  0  0  0  0  0  0  0  0
    0.3016   -0.1766    2.2497 H   0  0  0  0  0  0  0  0  0  0  0  0
    1.3033   -1.8493    1.5923 O   0  0  0  0  0  0  0  0  0  0  0  0
    1.8832   -1.9313    2.3571 H   0  0  0  0  0  0  0  0  0  0  0  0
    1.1481   -0.7031   -1.0842 C   0  0  0  0  0  0  0  0  0  0  0  0
    1.7762    0.1234   -1.7468 O   0  0  0  0  0  0  0  0  0  0  0  0
    1.2047   -2.0149   -1.3383 N   0  0  0  0  0  0  0  0  0  0  0  0
    0.5840   -2.6063   -0.8018 H   0  0  0  0  0  0  0  0  0  0  0  0
    2.0034   -2.6228   -2.4007 C   0  0  0  0  0  0  0  0  0  0  0  0
    3.0056   -2.1888   -2.4043 H   0  0  0  0  0  0  0  0  0  0  0  0
    2.0790   -3.6994   -2.2454 H   0  0  0  0  0  0  0  0  0  0  0  0
    1.5352   -2.4285   -3.3679 H   0  0  0  0  0  0  0  0  0  0  0  0
  5  6  2  0  0  0  0
  5  7  1  0  0  0  0
  2  3  1  0  0  0  0
  2  4  1  0  0  0  0
  2  5  1  0  0  0  0
  1  2  1  0  0  0  0
 16 17  2  0  0  0  0
 16 18  1  0  0  0  0
 14 15  1  0  0  0  0
 11 12  1  0  0  0  0
 11 13  1  0  0  0  0
 11 14  1  0  0  0  0
  9 10  1  0  0  0  0
  9 11  1  0  0  0  0
  9 16  1  0  0  0  0
  7  8  1  0  0  0  0
  7  9  1  0  0  0  0
 20 21  1  0  0  0  0
 20 22  1  0  0  0  0
 20 23  1  0  0  0  0
 18 19  1  0  0  0  0
 18 20  1  0  0  0  0
M  END
$$$$
default_name
  -OEChem-01062215323D

 23 22  0     1  0  0  0  0  0999 V2000
   -2.6721   -3.7279    0.7212 H   0  0  0  0  0  0  0  0  0  0  0  0
   -2.6561   -2.6819    0.4162 C   0  0  0  0  0  0  0  0  0  0  0  0
   -3.2401   -2.0889    1.1172 H   0  0  0  0  0  0  0  0  0  0  0  0
   -3.0671   -2.5859   -0.5858 H   0  0  0  0  0  0  0  0  0  0  0  0
   -1.2261   -2.1939    0.4202 C   0  0  0  0  0  0  0  0  0  0  0  0
   -0.3181   -2.9519    0.7312 O   0  0  0  0  0  0  0  0  0  0  0  0
   -1.0281   -0.9259    0.0662 N   0  0  0  0  0  0  0  0  0  0  0  0
   -1.8301   -0.3519   -0.1548 H   0  0  0  0  0  0  0  0  0  0  0  0
    0.2709   -0.2409    0.0912 C   0  0  1  0  0  0  0  0  0  0  0  0
    0.1042    0.8315   -0.0131 H   0  0  0  0  0  0  0  0  0  0  0  0
    0.9637   -0.4840    1.4383 C   0  0  0  0  0  0  0  0  0  0  0  0
    1.8767    0.1120    1.4837 H   0  0  0  0  0  0  0  0  0  0  0  0
    0.3016   -0.1766    2.2497 H   0  0  0  0  0  0  0  0  0  0  0  0
    1.3033   -1.8493    1.5923 O   0  0  0  0  0  0  0  0  0  0  0  0
    1.8832   -1.9313    2.3571 H   0  0  0  0  0  0  0  0  0  0  0  0
    1.1481   -0.7031   -1.0842 C   0  0  0  0  0  0  0  0  0  0  0  0
    1.9819    0.0626   -1.5694 O   0  0  0  0  0  0  0  0  0  0  0  0
    0.9751   -1.9502   -1.5351 N   0  0  0  0  0  0  0  0  0  0  0  0
    0.2054   -2.4719   -1.1372 H   0  0  0  0  0  0  0  0  0  0  0  0
    1.7372   -2.5534   -2.6267 C   0  0  0  0  0  0  0  0  0  0  0  0
    2.8000   -2.3365   -2.4997 H   0  0  0  0  0  0  0  0  0  0  0  0
    1.5899   -3.6337   -2.6363 H   0  0  0  0  0  0  0  0  0  0  0  0
    1.4066   -2.1345   -3.5794 H   0  0  0  0  0  0  0  0  0  0  0  0
  5  6  2  0  0  0  0
  5  7  1  0  0  0  0
  2  3  1  0  0  0  0
  2  4  1  0  0  0  0
  2  5  1  0  0  0  0
  1  2  1  0  0  0  0
 16 17  2  0  0  0  0
 16 18  1  0  0  0  0
 14 15  1  0  0  0  0
 11 12  1  0  0  0  0
 11 13  1  0  0  0  0
 11 14  1  0  0  0  0
  9 10  1  0  0  0  0
  9 11  1  0  0  0  0
  9 16  1  0  0  0  0
  7  8  1  0  0  0  0
  7  9  1  0  0  0  0
 20 21  1  0  0  0  0
 20 22  1  0  0  0  0
 20 23  1  0  0  0  0
 18 19  1  0  0  0  0
 18 20  1  0  0  0  0
M  END
$$$$
default_name
  -OEChem-01062215323D

 23 22  0     1  0  0  0  0  0999 V2000
   -2.6721   -3.7279    0.7212 H   0  0  0  0  0  0  0  0  0  0  0  0
   -2.6561   -2.6819    0.4162 C   0  0  0  0  0  0  0  0  0  0  0  0
   -3.2401   -2.0889    1.1172 H   0  0  0  0  0  0  0  0  0  0  0  0
   -3.0671   -2.5859   -0.5858 H   0  0  0  0  0  0  0  0  0  0  0  0
   -1.2261   -2.1939    0.4202 C   0  0  0  0  0  0  0  0  0  0  0  0
   -0.3181   -2.9519    0.7312 O   0  0  0  0  0  0  0  0  0  0  0  0
   -1.0281   -0.9259    0.0662 N   0  0  0  0  0  0  0  0  0  0  0  0
   -1.8301   -0.3519   -0.1548 H   0  0  0  0  0  0  0  0  0  0  0  0
    0.2709   -0.2409    0.0912 C   0  0  1  0  0  0  0  0  0  0  0  0
    0.1042    0.8315   -0.0131 H   0  0  0  0  0  0  0  0  0  0  0  0
    0.9637   -0.4840    1.4383 C   0  0  0  0  0  0  0  0  0  0  0  0
    1.8767    0.1120    1.4837 H   0  0  0  0  0  0  0  0  0  0  0  0
    0.3016   -0.1766    2.2497 H   0  0  0  0  0  0  0  0  0  0  0  0
    1.3033   -1.8493    1.5923 O   0  0  0  0  0  0  0  0  0  0  0  0
    1.8832   -1.9313    2.3571 H   0  0  0  0  0  0  0  0  0  0  0  0
    1.1481   -0.7031   -1.0842 C   0  0  0  0  0  0  0  0  0  0  0  0
    2.1546   -0.0631   -1.3910 O   0  0  0  0  0  0  0  0  0  0  0  0
    0.7814   -1.8133   -1.7335 N   0  0  0  0  0  0  0  0  0  0  0  0
   -0.1076   -2.2177   -1.4708 H   0  0  0  0  0  0  0  0  0  0  0  0
    1.5113   -2.4003   -2.8555 C   0  0  0  0  0  0  0  0  0  0  0  0
    2.5796   -2.4243   -2.6296 H   0  0  0  0  0  0  0  0  0  0  0  0
    1.1609   -3.4158   -3.0421 H   0  0  0  0  0  0  0  0  0  0  0  0
    1.3570   -1.7939   -3.7504 H   0  0  0  0  0  0  0  0  0  0  0  0
  5  6  2  0  0  0  0
  5  7  1  0  0  0  0
  2  3  1  0  0  0  0
  2  4  1  0  0  0  0
  2  5  1  0  0  0  0
  1  2  1  0  0  0  0
 16 17  2  0  0  0  0
 16 18  1  0  0  0  0
 14 15  1  0  0  0  0
 11 12  1  0  0  0  0
 11 13  1  0  0  0  0
 11 14  1  0  0  0  0
  9 10  1  0  0  0  0
  9 11  1  0  0  0  0
  9 16  1  0  0  0  0
  7  8  1  0  0  0  0
  7  9  1  0  0  0  0
 20 21  1  0  0  0  0
 20 22  1  0  0  0  0
 20 23  1  0  0  0  0
 18 19  1  0  0  0  0
 18 20  1  0  0  0  0
M  END
$$$$
default_name
  -OEChem-01062215323D

 23 22  0     1  0  0  0  0  0999 V2000
   -2.6721   -3.7279    0.7212 H   0  0  0  0  0  0  0  0  0  0  0  0
   -2.6561   -2.6819    0.4162 C   0  0  0  0  0  0  0  0  0  0  0  0
   -3.2401   -2.0889    1.1172 H   0  0  0  0  0  0  0  0  0  0  0  0
   -3.0671   -2.5859   -0.5858 H   0  0  0  0  0  0  0  0  0  0  0  0
   -1.2261   -2.1939    0.4202 C   0  0  0  0  0  0  0  0  0  0  0  0
   -0.3181   -2.9519    0.7312 O   0  0  0  0  0  0  0  0  0  0  0  0
   -1.0281   -0.9259    0.0662 N   0  0  0  0  0  0  0  0  0  0  0  0
   -1.8301   -0.3519   -0.1548 H   0  0  0  0  0  0  0  0  0  0  0  0
    0.2709   -0.2409    0.0912 C   0  0  1  0  0  0  0  0  0  0  0  0
    0.1042    0.8315   -0.0131 H   0  0  0  0  0  0  0  0  0  0  0  0
    0.9637   -0.4840    1.4383 C   0  0  0  0  0  0  0  0  0  0  0  0
    1.8767    0.1120    1.4837 H   0  0  0  0  0  0  0  0  0  0  0  0
    0.3016   -0.1766    2.2497 H   0  0  0  0  0  0  0  0  0  0  0  0
    1.3033   -1.8493    1.5923 O   0  0  0  0  0  0  0  0  0  0  0  0
    1.8832   -1.9313    2.3571 H   0  0  0  0  0  0  0  0  0  0  0  0
    1.1481   -0.7031   -1.0842 C   0  0  0  0  0  0  0  0  0  0  0  0
    2.2828   -0.2451   -1.2238 O   0  0  0  0  0  0  0  0  0  0  0  0
    0.6369   -1.6134   -1.9200 N   0  0  0  0  0  0  0  0  0  0  0  0
   -0.3337   -1.8609   -1.7798 H   0  0  0  0  0  0  0  0  0  0  0  0
    1.3413   -2.1740   -3.0714 C   0  0  0  0  0  0  0  0  0  0  0  0
    2.3594   -2.4464   -2.7853 H   0  0  0  0  0  0  0  0  0  0  0  0
    0.8212   -3.0606   -3.4353 H   0  0  0  0  0  0  0  0  0  0  0  0
    1.3899   -1.4298   -3.8690 H   0  0  0  0  0  0  0  0  0  0  0  0
  5  6  2  0  0  0  0
  5  7  1  0  0  0  0
  2  3  1  0  0  0  0
  2  4  1  0  0  0  0
  2  5  1  0  0  0  0
  1  2  1  0  0  0  0
 16 17  2  0  0  0  0
 16 18  1  0  0  0  0
 14 15  1  0  0  0  0
 11 12  1  0  0  0  0
 11 13  1  0  0  0  0
 11 14  1  0  0  0  0
  9 10  1  0  0  0  0
  9 11  1  0  0  0  0
  9 16  1  0  0  0  0
  7  8  1  0  0  0  0
  7  9  1  0  0  0  0
 20 21  1  0  0  0  0
 20 22  1  0  0  0  0
 20 23  1  0  0  0  0
 18 19  1  0  0  0  0
 18 20  1  0  0  0  0
M  END
$$$$
default_name
  -OEChem-01062215323D

 23 22  0     1  0  0  0  0  0999 V2000
   -2.6721   -3.7279    0.7212 H   0  0  0  0  0  0  0  0  0  0  0  0
   -2.6561   -2.6819    0.4162 C   0  0  0  0  0  0  0  0  0  0  0  0
   -3.2401   -2.0889    1.1172 H   0  0  0  0  0  0  0  0  0  0  0  0
   -3.0671   -2.5859   -0.5858 H   0  0  0  0  0  0  0  0  0  0  0  0
   -1.2261   -2.1939    0.4202 C   0  0  0  0  0  0  0  0  0  0  0  0
   -0.3181   -2.9519    0.7312 O   0  0  0  0  0  0  0  0  0  0  0  0
   -1.0281   -0.9259    0.0662 N   0  0  0  0  0  0  0  0  0  0  0  0
   -1.8301   -0.3519   -0.1548 H   0  0  0  0  0  0  0  0  0  0  0  0
    0.2709   -0.2409    0.0912 C   0  0  1  0  0  0  0  0  0  0  0  0
    0.1042    0.8315   -0.0131 H   0  0  0  0  0  0  0  0  0  0  0  0
    0.9637   -0.4840    1.4383 C   0  0  0  0  0  0  0  0  0  0  0  0
    1.8767    0.1120    1.4837 H   0  0  0  0  0  0  0  0  0  0  0  0
    0.3016   -0.1766    2.2497 H   0  0  0  0  0  0  0  0  0  0  0  0
    1.3033   -1.8493    1.5923 O   0  0  0  0  0  0  0  0  0  0  0  0
    1.8832   -1.9313    2.3571 H   0  0  0  0  0  0  0  0  0  0  0  0
    1.1481   -0.7031   -1.0842 C   0  0  0  0  0  0  0  0  0  0  0  0
    2.3576   -0.4708   -1.0792 O   0  0  0  0  0  0  0  0  0  0  0  0
    0.5513   -1.3642   -2.0819 N   0  0  0  0  0  0  0  0  0  0  0  0
   -0.4575   -1.4260   -2.0432 H   0  0  0  0  0  0  0  0  0  0  0  0
    1.2385   -1.8899   -3.2598 C   0  0  0  0  0  0  0  0  0  0  0  0
    2.1545   -2.4012   -2.9560 H   0  0  0  0  0  0  0  0  0  0  0  0
    0.5940   -2.5922   -3.7892 H   0  0  0  0  0  0  0  0  0  0  0  0
    1.5028   -1.0672   -3.9274 H   0  0  0  0  0  0  0  0  0  0  0  0
  5  6  2  0  0  0  0
  5  7  1  0  0  0  0
  2  3  1  0  0  0  0
  2  4  1  0  0  0  0
  2  5  1  0  0  0  0
  1  2  1  0  0  0  0
 16 17  2  0  0  0  0
 16 18  1  0  0  0  0
 14 15  1  0  0  0  0
 11 12  1  0  0  0  0
 11 13  1  0  0  0  0
 11 14  1  0  0  0  0
  9 10  1  0  0  0  0
  9 11  1  0  0  0  0
  9 16  1  0  0  0  0
  7  8  1  0  0  0  0
  7  9  1  0  0  0  0
 20 21  1  0  0  0  0
 20 22  1  0  0  0  0
 20 23  1  0  0  0  0
 18 19  1  0  0  0  0
 18 20  1  0  0  0  0
M  END
$$$$
default_name
  -OEChem-01062215323D

 23 22  0     1  0  0  0  0  0999 V2000
   -2.6721   -3.7279    0.7212 H   0  0  0  0  0  0  0  0  0  0  0  0
   -2.6561   -2.6819    0.4162 C   0  0  0  0  0  0  0  0  0  0  0  0
   -3.2401   -2.0889    1.1172 H   0  0  0  0  0  0  0  0  0  0  0  0
   -3.0671   -2.5859   -0.5858 H   0  0  0  0  0  0  0  0  0  0  0  0
   -1.2261   -2.1939    0.4202 C   0  0  0  0  0  0  0  0  0  0  0  0
   -0.3181   -2.9519    0.7312 O   0  0  0  0  0  0  0  0  0  0  0  0
   -1.0281   -0.9259    0.0662 N   0  0  0  0  0  0  0  0  0  0  0  0
   -1.8301   -0.3519   -0.1548 H   0  0  0  0  0  0  0  0  0  0  0  0
    0.2709   -0.2409    0.0912 C   0  0  1  0  0  0  0  0  0  0  0  0
    0.1042    0.8315   -0.0131 H   0  0  0  0  0  0  0  0  0  0  0  0
    0.9637   -0.4840    1.4383 C   0  0  0  0  0  0  0  0  0  0  0  0
    1.8767    0.1120    1.4837 H   0  0  0  0  0  0  0  0  0  0  0  0
    0.3016   -0.1766    2.2497 H   0  0  0  0  0  0  0  0  0  0  0  0
    1.3033   -1.8493    1.5923 O   0  0  0  0  0  0  0  0  0  0  0  0
    1.8832   -1.9313    2.3571 H   0  0  0  0  0  0  0  0  0  0  0  0
    1.1481   -0.7031   -1.0842 C   0  0  0  0  0  0  0  0  0  0  0  0
    2.3739   -0.7250   -0.9671 O   0  0  0  0  0  0  0  0  0  0  0  0
    0.5305   -1.0826   -2.2081 N   0  0  0  0  0  0  0  0  0  0  0  0
   -0.4705   -0.9425   -2.2431 H   0  0  0  0  0  0  0  0  0  0  0  0
    1.2102   -1.5673   -3.4078 C   0  0  0  0  0  0  0  0  0  0  0  0
    1.9788   -2.2918   -3.1302 H   0  0  0  0  0  0  0  0  0  0  0  0
    0.4947   -2.0426   -4.0794 H   0  0  0  0  0  0  0  0  0  0  0  0
    1.6882   -0.7306   -3.9214 H   0  0  0  0  0  0  0  0  0  0  0  0
  5  6  2  0  0  0  0
  5  7  1  0  0  0  0
  2  3  1  0  0  0  0
  2  4  1  0  0  0  0
  2  5  1  0  0  0  0
  1  2  1  0  0  0  0
 16 17  2  0  0  0  0
 16 18  1  0  0  0  0
 14 15  1  0  0  0  0
 11 12  1  0  0  0  0
 11 13  1  0  0  0  0
 11 14  1  0  0  0  0
  9 10  1  0  0  0  0
  9 11  1  0  0  0  0
  9 16  1  0  0  0  0
  7  8  1  0  0  0  0
  7  9  1  0  0  0  0
 20 21  1  0  0  0  0
 20 22  1  0  0  0  0
 20 23  1  0  0  0  0
 18 19  1  0  0  0  0
 18 20  1  0  0  0  0
M  END
$$$$
default_name
  -OEChem-01062215323D

 23 22  0     1  0  0  0  0  0999 V2000
   -2.6721   -3.7279    0.7212 H   0  0  0  0  0  0  0  0  0  0  0  0
   -2.6561   -2.6819    0.4162 C   0  0  0  0  0  0  0  0  0  0  0  0
   -3.2401   -2.0889    1.1172 H   0  0  0  0  0  0  0  0  0  0  0  0
   -3.0671   -2.5859   -0.5858 H   0  0  0  0  0  0  0  0  0  0  0  0
   -1.2261   -2.1939    0.4202 C   0  0  0  0  0  0  0  0  0  0  0  0
   -0.3181   -2.9519    0.7312 O   0  0  0  0  0  0  0  0  0  0  0  0
   -1.0281   -0.9259    0.0662 N   0  0  0  0  0  0  0  0  0  0  0  0
   -1.8301   -0.3519   -0.1548 H   0  0  0  0  0  0  0  0  0  0  0  0
    0.2709   -0.2409    0.0912 C   0  0  1  0  0  0  0  0  0  0  0  0
    0.1042    0.8315   -0.0131 H   0  0  0  0  0  0  0  0  0  0  0  0
    0.9637   -0.4840    1.4383 C   0  0  0  0  0  0  0  0  0  0  0  0
    1.8767    0.1120    1.4837 H   0  0  0  0  0  0  0  0  0  0  0  0
    0.3016   -0.1766    2.2497 H   0  0  0  0  0  0  0  0  0  0  0  0
    1.3033   -1.8493    1.5923 O   0  0  0  0  0  0  0  0  0  0  0  0
    1.8832   -1.9313    2.3571 H   0  0  0  0  0  0  0  0  0  0  0  0
    1.1481   -0.7031   -1.0842 C   0  0  0  0  0  0  0  0  0  0  0  0
    2.3307   -0.9904   -0.8950 O   0  0  0  0  0  0  0  0  0  0  0  0
    0.5760   -0.7879   -2.2900 N   0  0  0  0  0  0  0  0  0  0  0  0
   -0.3719   -0.4433   -2.3658 H   0  0  0  0  0  0  0  0  0  0  0  0
    1.2581   -1.2283   -3.5053 C   0  0  0  0  0  0  0  0  0  0  0  0
    1.8442   -2.1257   -3.2959 H   0  0  0  0  0  0  0  0  0  0  0  0
    0.5300   -1.4492   -4.2864 H   0  0  0  0  0  0  0  0  0  0  0  0
    1.9334   -0.4430   -3.8515 H   0  0  0  0  0  0  0  0  0  0  0  0
  5  6  2  0  0  0  0
  5  7  1  0  0  0  0
  2  3  1  0  0  0  0
  2  4  1  0  0  0  0
  2  5  1  0  0  0  0
  1  2  1  0  0  0  0
 16 17  2  0  0  0  0
 16 18  1  0  0  0  0
 14 15  1  0  0  0  0
 11 12  1  0  0  0  0
 11 13  1  0  0  0  0
 11 14  1  0  0  0  0
  9 10  1  0  0  0  0
  9 11  1  0  0  0  0
  9 16  1  0  0  0  0
  7  8  1  0  0  0  0
  7  9  1  0  0  0  0
 20 21  1  0  0  0  0
 20 22  1  0  0  0  0
 20 23  1  0  0  0  0
 18 19  1  0  0  0  0
 18 20  1  0  0  0  0
M  END
$$$$
default_name
  -OEChem-01062215323D

 23 22  0     1  0  0  0  0  0999 V2000
   -2.6721   -3.7279    0.7212 H   0  0  0  0  0  0  0  0  0  0  0  0
   -2.6561   -2.6819    0.4162 C   0  0  0  0  0  0  0  0  0  0  0  0
   -3.2401   -2.0889    1.1172 H   0  0  0  0  0  0  0  0  0  0  0  0
   -3.0671   -2.5859   -0.5858 H   0  0  0  0  0  0  0  0  0  0  0  0
   -1.2261   -2.1939    0.4202 C   0  0  0  0  0  0  0  0  0  0  0  0
   -0.3181   -2.9519    0.7312 O   0  0  0  0  0  0  0  0  0  0  0  0
   -1.0281   -0.9259    0.0662 N   0  0  0  0  0  0  0  0  0  0  0  0
   -1.8301   -0.3519   -0.1548 H   0  0  0  0  0  0  0  0  0  0  0  0
    0.2709   -0.2409    0.0912 C   0  0  1  0  0  0  0  0  0  0  0  0
    0.1042    0.8315   -0.0131 H   0  0  0  0  0  0  0  0  0  0  0  0
    0.9637   -0.4840    1.4383 C   0  0  0  0  0  0  0  0  0  0  0  0
    1.8767    0.1120    1.4837 H   0  0  0  0  0  0  0  0  0  0  0  0
    0.3016   -0.1766    2.2497 H   0  0  0  0  0  0  0  0  0  0  0  0
    1.3033   -1.8493    1.5923 O   0  0  0  0  0  0  0  0  0  0  0  0
    1.8832   -1.9313    2.3571 H   0  0  0  0  0  0  0  0  0  0  0  0
    1.1481   -0.7031   -1.0842 C   0  0  0  0  0  0  0  0  0  0  0  0
    2.2308   -1.2488   -0.8679 O   0  0  0  0  0  0  0  0  0  0  0  0
    0.6846   -0.5002   -2.3221 N   0  0  0  0  0  0  0  0  0  0  0  0
   -0.1683    0.0374   -2.4029 H   0  0  0  0  0  0  0  0  0  0  0  0
    1.3791   -0.8959   -3.5458 C   0  0  0  0  0  0  0  0  0  0  0  0
    1.7600   -1.9141   -3.4420 H   0  0  0  0  0  0  0  0  0  0  0  0
    0.6977   -0.8524   -4.3959 H   0  0  0  0  0  0  0  0  0  0  0  0
    2.2216   -0.2240   -3.7224 H   0  0  0  0  0  0  0  0  0  0  0  0
  5  6  2  0  0  0  0
  5  7  1  0  0  0  0
  2  3  1  0  0  0  0
  2  4  1  0  0  0  0
  2  5  1  0  0  0  0
  1  2  1  0  0  0  0
 16 17  2  0  0  0  0
 16 18  1  0  0  0  0
 14 15  1  0  0  0  0
 11 12  1  0  0  0  0
 11 13  1  0  0  0  0
 11 14  1  0  0  0  0
  9 10  1  0  0  0  0
  9 11  1  0  0  0  0
  9 16  1  0  0  0  0
  7  8  1  0  0  0  0
  7  9  1  0  0  0  0
 20 21  1  0  0  0  0
 20 22  1  0  0  0  0
 20 23  1  0  0  0  0
 18 19  1  0  0  0  0
 18 20  1  0  0  0  0
M  END
$$$$
default_name
  -OEChem-01062215323D

 23 22  0     1  0  0  0  0  0999 V2000
   -2.6721   -3.7279    0.7212 H   0  0  0  0  0  0  0  0  0  0  0  0
   -2.6561   -2.6819    0.4162 C   0  0  0  0  0  0  0  0  0  0  0  0
   -3.2401   -2.0889    1.1172 H   0  0  0  0  0  0  0  0  0  0  0  0
   -3.0671   -2.5859   -0.5858 H   0  0  0  0  0  0  0  0  0  0  0  0
   -1.2261   -2.1939    0.4202 C   0  0  0  0  0  0  0  0  0  0  0  0
   -0.3181   -2.9519    0.7312 O   0  0  0  0  0  0  0  0  0  0  0  0
   -1.0281   -0.9259    0.0662 N   0  0  0  0  0  0  0  0  0  0  0  0
   -1.8301   -0.3519   -0.1548 H   0  0  0  0  0  0  0  0  0  0  0  0
    0.2709   -0.2409    0.0912 C   0  0  1  0  0  0  0  0  0  0  0  0
    0.1042    0.8315   -0.0131 H   0  0  0  0  0  0  0  0  0  0  0  0
    0.9637   -0.4840    1.4383 C   0  0  0  0  0  0  0  0  0  0  0  0
    1.8767    0.1120    1.4837 H   0  0  0  0  0  0  0  0  0  0  0  0
    0.3016   -0.1766    2.2497 H   0  0  0  0  0  0  0  0  0  0  0  0
    1.3033   -1.8493    1.5923 O   0  0  0  0  0  0  0  0  0  0  0  0
    1.8832   -1.9313    2.3571 H   0  0  0  0  0  0  0  0  0  0  0  0
    1.1481   -0.7031   -1.0842 C   0  0  0  0  0  0  0  0  0  0  0  0
    2.0811   -1.4826   -0.8877 O   0  0  0  0  0  0  0  0  0  0  0  0
    0.8489   -0.2389   -2.3022 N   0  0  0  0  0  0  0  0  0  0  0  0
    0.1263    0.4669   -2.3519 H   0  0  0  0  0  0  0  0  0  0  0  0
    1.5648   -0.5928   -3.5263 C   0  0  0  0  0  0  0  0  0  0  0  0
    1.7319   -1.6715   -3.5583 H   0  0  0  0  0  0  0  0  0  0  0  0
    0.9862   -0.2930   -4.4006 H   0  0  0  0  0  0  0  0  0  0  0  0
    2.5334   -0.0886   -3.5430 H   0  0  0  0  0  0  0  0  0  0  0  0
  5  6  2  0  0  0  0
  5  7  1  0  0  0  0
  2  3  1  0  0  0  0
  2  4  1  0  0  0  0
  2  5  1  0  0  0  0
  1  2  1  0  0  0  0
 16 17  2  0  0  0  0
 16 18  1  0  0  0  0
 14 15  1  0  0  0  0
 11 12  1  0  0  0  0
 11 13  1  0  0  0  0
 11 14  1  0  0  0  0
  9 10  1  0  0  0  0
  9 11  1  0  0  0  0
  9 16  1  0  0  0  0
  7  8  1  0  0  0  0
  7  9  1  0  0  0  0
 20 21  1  0  0  0  0
 20 22  1  0  0  0  0
 20 23  1  0  0  0  0
 18 19  1  0  0  0  0
 18 20  1  0  0  0  0
M  END
$$$$
default_name
  -OEChem-01062215323D

 23 22  0     1  0  0  0  0  0999 V2000
   -2.6721   -3.7279    0.7212 H   0  0  0  0  0  0  0  0  0  0  0  0
   -2.6561   -2.6819    0.4162 C   0  0  0  0  0  0  0  0  0  0  0  0
   -3.2401   -2.0889    1.1172 H   0  0  0  0  0  0  0  0  0  0  0  0
   -3.0671   -2.5859   -0.5858 H   0  0  0  0  0  0  0  0  0  0  0  0
   -1.2261   -2.1939    0.4202 C   0  0  0  0  0  0  0  0  0  0  0  0
   -0.3181   -2.9519    0.7312 O   0  0  0  0  0  0  0  0  0  0  0  0
   -1.0281   -0.9259    0.0662 N   0  0  0  0  0  0  0  0  0  0  0  0
   -1.8301   -0.3519   -0.1548 H   0  0  0  0  0  0  0  0  0  0  0  0
    0.2709   -0.2409    0.0912 C   0  0  1  0  0  0  0  0  0  0  0  0
    0.1042    0.8315   -0.0131 H   0  0  0  0  0  0  0  0  0  0  0  0
    0.9637   -0.4840    1.4383 C   0  0  0  0  0  0  0  0  0  0  0  0
    1.8767    0.1120    1.4837 H   0  0  0  0  0  0  0  0  0  0  0  0
    0.3016   -0.1766    2.2497 H   0  0  0  0  0  0  0  0  0  0  0  0
    1.3033   -1.8493    1.5923 O   0  0  0  0  0  0  0  0  0  0  0  0
    1.8832   -1.9313    2.3571 H   0  0  0  0  0  0  0  0  0  0  0  0
    1.1481   -0.7031   -1.0842 C   0  0  0  0  0  0  0  0  0  0  0  0
    1.8918   -1.6759   -0.9530 O   0  0  0  0  0  0  0  0  0  0  0  0
    1.0577   -0.0221   -2.2316 N   0  0  0  0  0  0  0  0  0  0  0  0
    0.4918    0.8160   -2.2164 H   0  0  0  0  0  0  0  0  0  0  0  0
    1.8027   -0.3396   -3.4483 C   0  0  0  0  0  0  0  0  0  0  0  0
    1.7618   -1.4144   -3.6371 H   0  0  0  0  0  0  0  0  0  0  0  0
    1.3759    0.1910   -4.3000 H   0  0  0  0  0  0  0  0  0  0  0  0
    2.8473   -0.0460   -3.3254 H   0  0  0  0  0  0  0  0  0  0  0  0
  5  6  2  0  0  0  0
  5  7  1  0  0  0  0
  2  3  1  0  0  0  0
  2  4  1  0  0  0  0
  2  5  1  0  0  0  0
  1  2  1  0  0  0  0
 16 17  2  0  0  0  0
 16 18  1  0  0  0  0
 14 15  1  0  0  0  0
 11 12  1  0  0  0  0
 11 13  1  0  0  0  0
 11 14  1  0  0  0  0
  9 10  1  0  0  0  0
  9 11  1  0  0  0  0
  9 16  1  0  0  0  0
  7  8  1  0  0  0  0
  7  9  1  0  0  0  0
 20 21  1  0  0  0  0
 20 22  1  0  0  0  0
 20 23  1  0  0  0  0
 18 19  1  0  0  0  0
 18 20  1  0  0  0  0
M  END
$$$$
default_name
  -OEChem-01062215323D

 23 22  0     1  0  0  0  0  0999 V2000
   -2.6721   -3.7279    0.7212 H   0  0  0  0  0  0  0  0  0  0  0  0
   -2.6561   -2.6819    0.4162 C   0  0  0  0  0  0  0  0  0  0  0  0
   -3.2401   -2.0889    1.1172 H   0  0  0  0  0  0  0  0  0  0  0  0
   -3.0671   -2.5859   -0.5858 H   0  0  0  0  0  0  0  0  0  0  0  0
   -1.2261   -2.1939    0.4202 C   0  0  0  0  0  0  0  0  0  0  0  0
   -0.3181   -2.9519    0.7312 O   0  0  0  0  0  0  0  0  0  0  0  0
   -1.0281   -0.9259    0.0662 N   0  0  0  0  0  0  0  0  0  0  0  0
   -1.8301   -0.3519   -0.1548 H   0  0  0  0  0  0  0  0  0  0  0  0
    0.2709   -0.2409    0.0912 C   0  0  1  0  0  0  0  0  0  0  0  0
    0.1042    0.8315   -0.0131 H   0  0  0  0  0  0  0  0  0  0  0  0
    0.9637   -0.4840    1.4383 C   0  0  0  0  0  0  0  0  0  0  0  0
    1.8767    0.1120    1.4837 H   0  0  0  0  0  0  0  0  0  0  0  0
    0.3016   -0.1766    2.2497 H   0  0  0  0  0  0  0  0  0  0  0  0
    1.3033   -1.8493    1.5923 O   0  0  0  0  0  0  0  0  0  0  0  0
    1.8832   -1.9313    2.3571 H   0  0  0  0  0  0  0  0  0  0  0  0
    1.1481   -0.7031   -1.0842 C   0  0  0  0  0  0  0  0  0  0  0  0
    1.6758   -1.8156   -1.0593 O   0  0  0  0  0  0  0  0  0  0  0  0
    1.2968    0.1357   -2.1152 N   0  0  0  0  0  0  0  0  0  0  0  0
    0.9035    1.0609   -2.0054 H   0  0  0  0  0  0  0  0  0  0  0  0
    2.0765   -0.1536   -3.3171 C   0  0  0  0  0  0  0  0  0  0  0  0
    1.8477   -1.1604   -3.6729 H   0  0  0  0  0  0  0  0  0  0  0  0
    1.8403    0.5665   -4.1011 H   0  0  0  0  0  0  0  0  0  0  0  0
    3.1420   -0.0991   -3.0846 H   0  0  0  0  0  0  0  0  0  0  0  0
  5  6  2  0  0  0  0
  5  7  1  0  0  0  0
  2  3  1  0  0  0  0
  2  4  1  0  0  0  0
  2  5  1  0  0  0  0
  1  2  1  0  0  0  0
 16 17  2  0  0  0  0
 16 18  1  0  0  0  0
 14 15  1  0  0  0  0
 11 12  1  0  0  0  0
 11 13  1  0  0  0  0
 11 14  1  0  0  0  0
  9 10  1  0  0  0  0
  9 11  1  0  0  0  0
  9 16  1  0  0  0  0
  7  8  1  0  0  0  0
  7  9  1  0  0  0  0
 20 21  1  0  0  0  0
 20 22  1  0  0  0  0
 20 23  1  0  0  0  0
 18 19  1  0  0  0  0
 18 20  1  0  0  0  0
M  END
$$$$
default_name
  -OEChem-01062215323D

 23 22  0     1  0  0  0  0  0999 V2000
   -2.6721   -3.7279    0.7212 H   0  0  0  0  0  0  0  0  0  0  0  0
   -2.6561   -2.6819    0.4162 C   0  0  0  0  0  0  0  0  0  0  0  0
   -3.2401   -2.0889    1.1172 H   0  0  0  0  0  0  0  0  0  0  0  0
   -3.0671   -2.5859   -0.5858 H   0  0  0  0  0  0  0  0  0  0  0  0
   -1.2261   -2.1939    0.4202 C   0  0  0  0  0  0  0  0  0  0  0  0
   -0.3181   -2.9519    0.7312 O   0  0  0  0  0  0  0  0  0  0  0  0
   -1.0281   -0.9259    0.0662 N   0  0  0  0  0  0  0  0  0  0  0  0
   -1.8301   -0.3519   -0.1548 H   0  0  0  0  0  0  0  0  0  0  0  0
    0.2709   -0.2409    0.0912 C   0  0  1  0  0  0  0  0  0  0  0  0
    0.1042    0.8315   -0.0131 H   0  0  0  0  0  0  0  0  0  0  0  0
    0.9637   -0.4840    1.4383 C   0  0  0  0  0  0  0  0  0  0  0  0
    1.8767    0.1120    1.4837 H   0  0  0  0  0  0  0  0  0  0  0  0
    0.3016   -0.1766    2.2497 H   0  0  0  0  0  0  0  0  0  0  0  0
    1.3033   -1.8493    1.5923 O   0  0  0  0  0  0  0  0  0  0  0  0
    1.8832   -1.9313    2.3571 H   0  0  0  0  0  0  0  0  0  0  0  0
    1.1481   -0.7031   -1.0842 C   0  0  0  0  0  0  0  0  0  0  0  0
    1.4478   -1.8921   -1.1994 O   0  0  0  0  0  0  0  0  0  0  0  0
    1.5500    0.2235   -1.9608 N   0  0  0  0  0  0  0  0  0  0  0  0
    1.3331    1.1849   -1.7335 H   0  0  0  0  0  0  0  0  0  0  0  0
    2.3675   -0.0475   -3.1416 C   0  0  0  0  0  0  0  0  0  0  0  0
    1.9836   -0.9268   -3.6633 H   0  0  0  0  0  0  0  0  0  0  0  0
    2.3476    0.8080   -3.8174 H   0  0  0  0  0  0  0  0  0  0  0  0
    3.3975   -0.2442   -2.8368 H   0  0  0  0  0  0  0  0  0  0  0  0
  5  6  2  0  0  0  0
  5  7  1  0  0  0  0
  2  3  1  0  0  0  0
  2  4  1  0  0  0  0
  2  5  1  0  0  0  0
  1  2  1  0  0  0  0
 16 17  2  0  0  0  0
 16 18  1  0  0  0  0
 14 15  1  0  0  0  0
 11 12  1  0  0  0  0
 11 13  1  0  0  0  0
 11 14  1  0  0  0  0
  9 10  1  0  0  0  0
  9 11  1  0  0  0  0
  9 16  1  0  0  0  0
  7  8  1  0  0  0  0
  7  9  1  0  0  0  0
 20 21  1  0  0  0  0
 20 22  1  0  0  0  0
 20 23  1  0  0  0  0
 18 19  1  0  0  0  0
 18 20  1  0  0  0  0
M  END
$$$$
default_name
  -OEChem-01062215323D

 23 22  0     1  0  0  0  0  0999 V2000
   -2.6721   -3.7279    0.7212 H   0  0  0  0  0  0  0  0  0  0  0  0
   -2.6561   -2.6819    0.4162 C   0  0  0  0  0  0  0  0  0  0  0  0
   -3.2401   -2.0889    1.1172 H   0  0  0  0  0  0  0  0  0  0  0  0
   -3.0671   -2.5859   -0.5858 H   0  0  0  0  0  0  0  0  0  0  0  0
   -1.2261   -2.1939    0.4202 C   0  0  0  0  0  0  0  0  0  0  0  0
   -0.3181   -2.9519    0.7312 O   0  0  0  0  0  0  0  0  0  0  0  0
   -1.0281   -0.9259    0.0662 N   0  0  0  0  0  0  0  0  0  0  0  0
   -1.8301   -0.3519   -0.1548 H   0  0  0  0  0  0  0  0  0  0  0  0
    0.2709   -0.2409    0.0912 C   0  0  1  0  0  0  0  0  0  0  0  0
    0.1042    0.8315   -0.0131 H   0  0  0  0  0  0  0  0  0  0  0  0
    0.9637   -0.4840    1.4383 C   0  0  0  0  0  0  0  0  0  0  0  0
    1.8767    0.1120    1.4837 H   0  0  0  0  0  0  0  0  0  0  0  0
    0.3016   -0.1766    2.2497 H   0  0  0  0  0  0  0  0  0  0  0  0
    1.3033   -1.8493    1.5923 O   0  0  0  0  0  0  0  0  0  0  0  0
    1.8832   -1.9313    2.3571 H   0  0  0  0  0  0  0  0  0  0  0  0
    1.1481   -0.7031   -1.0842 C   0  0  0  0  0  0  0  0  0  0  0  0
    1.2233   -1.9001   -1.3638 O   0  0  0  0  0  0  0  0  0  0  0  0
    1.7999    0.2356   -1.7790 N   0  0  0  0  0  0  0  0  0  0  0  0
    1.7515    1.1795   -1.4191 H   0  0  0  0  0  0  0  0  0  0  0  0
    2.6560   -0.0285   -2.9338 C   0  0  0  0  0  0  0  0  0  0  0  0
    2.1605   -0.7294   -3.6090 H   0  0  0  0  0  0  0  0  0  0  0  0
    2.8634    0.8990   -3.4682 H   0  0  0  0  0  0  0  0  0  0  0  0
    3.5963   -0.4715   -2.5991 H   0  0  0  0  0  0  0  0  0  0  0  0
  5  6  2  0  0  0  0
  5  7  1  0  0  0  0
  2  3  1  0  0  0  0
  2  4  1  0  0  0  0
  2  5  1  0  0  0  0
  1  2  1  0  0  0  0
 16 17  2  0  0  0  0
 16 18  1  0  0  0  0
 14 15  1  0  0  0  0
 11 12  1  0  0  0  0
 11 13  1  0  0  0  0
 11 14  1  0  0  0  0
  9 10  1  0  0  0  0
  9 11  1  0  0  0  0
  9 16  1  0  0  0  0
  7  8  1  0  0  0  0
  7  9  1  0  0  0  0
 20 21  1  0  0  0  0
 20 22  1  0  0  0  0
 20 23  1  0  0  0  0
 18 19  1  0  0  0  0
 18 20  1  0  0  0  0
M  END
$$$$
default_name
  -OEChem-01062215323D

 23 22  0     1  0  0  0  0  0999 V2000
   -2.6721   -3.7279    0.7212 H   0  0  0  0  0  0  0  0  0  0  0  0
   -2.6561   -2.6819    0.4162 C   0  0  0  0  0  0  0  0  0  0  0  0
   -3.2401   -2.0889    1.1172 H   0  0  0  0  0  0  0  0  0  0  0  0
   -3.0671   -2.5859   -0.5858 H   0  0  0  0  0  0  0  0  0  0  0  0
   -1.2261   -2.1939    0.4202 C   0  0  0  0  0  0  0  0  0  0  0  0
   -0.3181   -2.9519    0.7312 O   0  0  0  0  0  0  0  0  0  0  0  0
   -1.0281   -0.9259    0.0662 N   0  0  0  0  0  0  0  0  0  0  0  0
   -1.8301   -0.3519   -0.1548 H   0  0  0  0  0  0  0  0  0  0  0  0
    0.2709   -0.2409    0.0912 C   0  0  1  0  0  0  0  0  0  0  0  0
    0.1042    0.8315   -0.0131 H   0  0  0  0  0  0  0  0  0  0  0  0
    0.9637   -0.4840    1.4383 C   0  0  0  0  0  0  0  0  0  0  0  0
    1.8767    0.1120    1.4837 H   0  0  0  0  0  0  0  0  0  0  0  0
    0.3016   -0.1766    2.2497 H   0  0  0  0  0  0  0  0  0  0  0  0
    1.3033   -1.8493    1.5923 O   0  0  0  0  0  0  0  0  0  0  0  0
    1.8832   -1.9313    2.3571 H   0  0  0  0  0  0  0  0  0  0  0  0
    1.1481   -0.7031   -1.0842 C   0  0  0  0  0  0  0  0  0  0  0  0
    1.0177   -1.8392   -1.5412 O   0  0  0  0  0  0  0  0  0  0  0  0
    2.0295    0.1709   -1.5822 N   0  0  0  0  0  0  0  0  0  0  0  0
    2.1300    1.0451   -1.0837 H   0  0  0  0  0  0  0  0  0  0  0  0
    2.9222   -0.0979   -2.7078 C   0  0  0  0  0  0  0  0  0  0  0  0
    2.3661   -0.5817   -3.5136 H   0  0  0  0  0  0  0  0  0  0  0  0
    3.3525    0.8334   -3.0774 H   0  0  0  0  0  0  0  0  0  0  0  0
    3.7248   -0.7654   -2.3876 H   0  0  0  0  0  0  0  0  0  0  0  0
  5  6  2  0  0  0  0
  5  7  1  0  0  0  0
  2  3  1  0  0  0  0
  2  4  1  0  0  0  0
  2  5  1  0  0  0  0
  1  2  1  0  0  0  0
 16 17  2  0  0  0  0
 16 18  1  0  0  0  0
 14 15  1  0  0  0  0
 11 12  1  0  0  0  0
 11 13  1  0  0  0  0
 11 14  1  0  0  0  0
  9 10  1  0  0  0  0
  9 11  1  0  0  0  0
  9 16  1  0  0  0  0
  7  8  1  0  0  0  0
  7  9  1  0  0  0  0
 20 21  1  0  0  0  0
 20 22  1  0  0  0  0
 20 23  1  0  0  0  0
 18 19  1  0  0  0  0
 18 20  1  0  0  0  0
M  END
$$$$
default_name
  -OEChem-01062215323D

 23 22  0     1  0  0  0  0  0999 V2000
   -2.6721   -3.7279    0.7212 H   0  0  0  0  0  0  0  0  0  0  0  0
   -2.6561   -2.6819    0.4162 C   0  0  0  0  0  0  0  0  0  0  0  0
   -3.2401   -2.0889    1.1172 H   0  0  0  0  0  0  0  0  0  0  0  0
   -3.0671   -2.5859   -0.5858 H   0  0  0  0  0  0  0  0  0  0  0  0
   -1.2261   -2.1939    0.4202 C   0  0  0  0  0  0  0  0  0  0  0  0
   -0.3181   -2.9519    0.7312 O   0  0  0  0  0  0  0  0  0  0  0  0
   -1.0281   -0.9259    0.0662 N   0  0  0  0  0  0  0  0  0  0  0  0
   -1.8301   -0.3519   -0.1548 H   0  0  0  0  0  0  0  0  0  0  0  0
    0.2709   -0.2409    0.0912 C   0  0  1  0  0  0  0  0  0  0  0  0
    0.1042    0.8315   -0.0131 H   0  0  0  0  0  0  0  0  0  0  0  0
    0.9637   -0.4840    1.4383 C   0  0  0  0  0  0  0  0  0  0  0  0
    1.8767    0.1120    1.4837 H   0  0  0  0  0  0  0  0  0  0  0  0
    0.3016   -0.1766    2.2497 H   0  0  0  0  0  0  0  0  0  0  0  0
    1.3033   -1.8493    1.5923 O   0  0  0  0  0  0  0  0  0  0  0  0
    1.8832   -1.9313    2.3571 H   0  0  0  0  0  0  0  0  0  0  0  0
    1.1481   -0.7031   -1.0842 C   0  0  0  0  0  0  0  0  0  0  0  0
    0.8449   -1.7136   -1.7196 O   0  0  0  0  0  0  0  0  0  0  0  0
    2.2231    0.0339   -1.3838 N   0  0  0  0  0  0  0  0  0  0  0  0
    2.4430    0.7909   -0.7501 H   0  0  0  0  0  0  0  0  0  0  0  0
    3.1481   -0.2509   -2.4791 C   0  0  0  0  0  0  0  0  0  0  0  0
    2.5865   -0.4938   -3.3837 H   0  0  0  0  0  0  0  0  0  0  0  0
    3.7814    0.6155   -2.6716 H   0  0  0  0  0  0  0  0  0  0  0  0
    3.7744   -1.1060   -2.2166 H   0  0  0  0  0  0  0  0  0  0  0  0
  5  6  2  0  0  0  0
  5  7  1  0  0  0  0
  2  3  1  0  0  0  0
  2  4  1  0  0  0  0
  2  5  1  0  0  0  0
  1  2  1  0  0  0  0
 16 17  2  0  0  0  0
 16 18  1  0  0  0  0
 14 15  1  0  0  0  0
 11 12  1  0  0  0  0
 11 13  1  0  0  0  0
 11 14  1  0  0  0  0
  9 10  1  0  0  0  0
  9 11  1  0  0  0  0
  9 16  1  0  0  0  0
  7  8  1  0  0  0  0
  7  9  1  0  0  0  0
 20 21  1  0  0  0  0
 20 22  1  0  0  0  0
 20 23  1  0  0  0  0
 18 19  1  0  0  0  0
 18 20  1  0  0  0  0
M  END
$$$$
default_name
  -OEChem-01062215323D

 23 22  0     1  0  0  0  0  0999 V2000
   -2.6721   -3.7279    0.7212 H   0  0  0  0  0  0  0  0  0  0  0  0
   -2.6561   -2.6819    0.4162 C   0  0  0  0  0  0  0  0  0  0  0  0
   -3.2401   -2.0889    1.1172 H   0  0  0  0  0  0  0  0  0  0  0  0
   -3.0671   -2.5859   -0.5858 H   0  0  0  0  0  0  0  0  0  0  0  0
   -1.2261   -2.1939    0.4202 C   0  0  0  0  0  0  0  0  0  0  0  0
   -0.3181   -2.9519    0.7312 O   0  0  0  0  0  0  0  0  0  0  0  0
   -1.0281   -0.9259    0.0662 N   0  0  0  0  0  0  0  0  0  0  0  0
   -1.8301   -0.3519   -0.1548 H   0  0  0  0  0  0  0  0  0  0  0  0
    0.2709   -0.2409    0.0912 C   0  0  1  0  0  0  0  0  0  0  0  0
    0.1031    0.8237    0.2563 H   0  0  0  0  0  0  0  0  0  0  0  0
    1.1195   -0.7728    1.2534 C   0  0  0  0  0  0  0  0  0  0  0  0
    2.0370   -0.1862    1.3242 H   0  0  0  0  0  0  0  0  0  0  0  0
    0.5636   -0.6713    2.1872 H   0  0  0  0  0  0  0  0  0  0  0  0
    1.4621   -2.1306    1.0485 O   0  0  0  0  0  0  0  0  0  0  0  0
    2.1296   -2.3746    1.6987 H   0  0  0  0  0  0  0  0  0  0  0  0
    0.9947   -0.4058   -1.2555 C   0  0  0  0  0  0  0  0  0  0  0  0
    0.4612   -1.0368   -2.1688 O   0  0  0  0  0  0  0  0  0  0  0  0
    2.1966    0.1654   -1.3883 N   0  0  0  0  0  0  0  0  0  0  0  0
    2.5933    0.5821   -0.5565 H   0  0  0  0  0  0  0  0  0  0  0  0
    3.0078    0.1236   -2.6034 C   0  0  0  0  0  0  0  0  0  0  0  0
    2.3832    0.3401   -3.4726 H   0  0  0  0  0  0  0  0  0  0  0  0
    3.8102    0.8597   -2.5455 H   0  0  0  0  0  0  0  0  0  0  0  0
    3.4386   -0.8728   -2.7222 H   0  0  0  0  0  0  0  0  0  0  0  0
  5  6  2  0  0  0  0
  5  7  1  0  0  0  0
  2  3  1  0  0  0  0
  2  4  1  0  0  0  0
  2  5  1  0  0  0  0
  1  2  1  0  0  0  0
 16 17  2  0  0  0  0
 16 18  1  0  0  0  0
 14 15  1  0  0  0  0
 11 12  1  0  0  0  0
 11 13  1  0  0  0  0
 11 14  1  0  0  0  0
  9 10  1  0  0  0  0
  9 11  1  0  0  0  0
  9 16  1  0  0  0  0
  7  8  1  0  0  0  0
  7  9  1  0  0  0  0
 20 21  1  0  0  0  0
 20 22  1  0  0  0  0
 20 23  1  0  0  0  0
 18 19  1  0  0  0  0
 18 20  1  0  0  0  0
M  END
$$$$
default_name
  -OEChem-01062215323D

 23 22  0     1  0  0  0  0  0999 V2000
   -2.6721   -3.7279    0.7212 H   0  0  0  0  0  0  0  0  0  0  0  0
   -2.6561   -2.6819    0.4162 C   0  0  0  0  0  0  0  0  0  0  0  0
   -3.2401   -2.0889    1.1172 H   0  0  0  0  0  0  0  0  0  0  0  0
   -3.0671   -2.5859   -0.5858 H   0  0  0  0  0  0  0  0  0  0  0  0
   -1.2261   -2.1939    0.4202 C   0  0  0  0  0  0  0  0  0  0  0  0
   -0.3181   -2.9519    0.7312 O   0  0  0  0  0  0  0  0  0  0  0  0
   -1.0281   -0.9259    0.0662 N   0  0  0  0  0  0  0  0  0  0  0  0
   -1.8301   -0.3519   -0.1548 H   0  0  0  0  0  0  0  0  0  0  0  0
    0.2709   -0.2409    0.0912 C   0  0  1  0  0  0  0  0  0  0  0  0
    0.1031    0.8237    0.2563 H   0  0  0  0  0  0  0  0  0  0  0  0
    1.1195   -0.7728    1.2534 C   0  0  0  0  0  0  0  0  0  0  0  0
    2.0370   -0.1862    1.3242 H   0  0  0  0  0  0  0  0  0  0  0  0
    0.5636   -0.6713    2.1872 H   0  0  0  0  0  0  0  0  0  0  0  0
    1.4621   -2.1306    1.0485 O   0  0  0  0  0  0  0  0  0  0  0  0
    2.1296   -2.3746    1.6987 H   0  0  0  0  0  0  0  0  0  0  0  0
    0.9947   -0.4058   -1.2555 C   0  0  0  0  0  0  0  0  0  0  0  0
    0.3716   -0.7853   -2.2478 O   0  0  0  0  0  0  0  0  0  0  0  0
    2.2988   -0.1126   -1.2993 N   0  0  0  0  0  0  0  0  0  0  0  0
    2.7439    0.1008   -0.4166 H   0  0  0  0  0  0  0  0  0  0  0  0
    3.1299   -0.1941   -2.4989 C   0  0  0  0  0  0  0  0  0  0  0  0
    2.6069    0.2609   -3.3427 H   0  0  0  0  0  0  0  0  0  0  0  0
    4.0741    0.3271   -2.3384 H   0  0  0  0  0  0  0  0  0  0  0  0
    3.3301   -1.2412   -2.7354 H   0  0  0  0  0  0  0  0  0  0  0  0
  5  6  2  0  0  0  0
  5  7  1  0  0  0  0
  2  3  1  0  0  0  0
  2  4  1  0  0  0  0
  2  5  1  0  0  0  0
  1  2  1  0  0  0  0
 16 17  2  0  0  0  0
 16 18  1  0  0  0  0
 14 15  1  0  0  0  0
 11 12  1  0  0  0  0
 11 13  1  0  0  0  0
 11 14  1  0  0  0  0
  9 10  1  0  0  0  0
  9 11  1  0  0  0  0
  9 16  1  0  0  0  0
  7  8  1  0  0  0  0
  7  9  1  0  0  0  0
 20 21  1  0  0  0  0
 20 22  1  0  0  0  0
 20 23  1  0  0  0  0
 18 19  1  0  0  0  0
 18 20  1  0  0  0  0
M  END
$$$$
default_name
  -OEChem-01062215323D

 23 22  0     1  0  0  0  0  0999 V2000
   -2.6721   -3.7279    0.7212 H   0  0  0  0  0  0  0  0  0  0  0  0
   -2.6561   -2.6819    0.4162 C   0  0  0  0  0  0  0  0  0  0  0  0
   -3.2401   -2.0889    1.1172 H   0  0  0  0  0  0  0  0  0  0  0  0
   -3.0671   -2.5859   -0.5858 H   0  0  0  0  0  0  0  0  0  0  0  0
   -1.2261   -2.1939    0.4202 C   0  0  0  0  0  0  0  0  0  0  0  0
   -0.3181   -2.9519    0.7312 O   0  0  0  0  0  0  0  0  0  0  0  0
   -1.0281   -0.9259    0.0662 N   0  0  0  0  0  0  0  0  0  0  0  0
   -1.8301   -0.3519   -0.1548 H   0  0  0  0  0  0  0  0  0  0  0  0
    0.2709   -0.2409    0.0912 C   0  0  1  0  0  0  0  0  0  0  0  0
    0.1031    0.8237    0.2563 H   0  0  0  0  0  0  0  0  0  0  0  0
    1.1195   -0.7728    1.2534 C   0  0  0  0  0  0  0  0  0  0  0  0
    2.0370   -0.1862    1.3242 H   0  0  0  0  0  0  0  0  0  0  0  0
    0.5636   -0.6713    2.1872 H   0  0  0  0  0  0  0  0  0  0  0  0
    1.4621   -2.1306    1.0485 O   0  0  0  0  0  0  0  0  0  0  0  0
    2.1296   -2.3746    1.6987 H   0  0  0  0  0  0  0  0  0  0  0  0
    0.9947   -0.4058   -1.2555 C   0  0  0  0  0  0  0  0  0  0  0  0
    0.3443   -0.5125   -2.2959 O   0  0  0  0  0  0  0  0  0  0  0  0
    2.3320   -0.4151   -1.2444 N   0  0  0  0  0  0  0  0  0  0  0  0
    2.7764   -0.4153   -0.3360 H   0  0  0  0  0  0  0  0  0  0  0  0
    3.1729   -0.5414   -2.4332 C   0  0  0  0  0  0  0  0  0  0  0  0
    2.8014    0.1178   -3.2207 H   0  0  0  0  0  0  0  0  0  0  0  0
    4.2026   -0.2724   -2.1960 H   0  0  0  0  0  0  0  0  0  0  0  0
    3.1421   -1.5709   -2.7961 H   0  0  0  0  0  0  0  0  0  0  0  0
  5  6  2  0  0  0  0
  5  7  1  0  0  0  0
  2  3  1  0  0  0  0
  2  4  1  0  0  0  0
  2  5  1  0  0  0  0
  1  2  1  0  0  0  0
 16 17  2  0  0  0  0
 16 18  1  0  0  0  0
 14 15  1  0  0  0  0
 11 12  1  0  0  0  0
 11 13  1  0  0  0  0
 11 14  1  0  0  0  0
  9 10  1  0  0  0  0
  9 11  1  0  0  0  0
  9 16  1  0  0  0  0
  7  8  1  0  0  0  0
  7  9  1  0  0  0  0
 20 21  1  0  0  0  0
 20 22  1  0  0  0  0
 20 23  1  0  0  0  0
 18 19  1  0  0  0  0
 18 20  1  0  0  0  0
M  END
$$$$
default_name
  -OEChem-01062215323D

 23 22  0     1  0  0  0  0  0999 V2000
   -2.6721   -3.7279    0.7212 H   0  0  0  0  0  0  0  0  0  0  0  0
   -2.6561   -2.6819    0.4162 C   0  0  0  0  0  0  0  0  0  0  0  0
   -3.2401   -2.0889    1.1172 H   0  0  0  0  0  0  0  0  0  0  0  0
   -3.0671   -2.5859   -0.5858 H   0  0  0  0  0  0  0  0  0  0  0  0
   -1.2261   -2.1939    0.4202 C   0  0  0  0  0  0  0  0  0  0  0  0
   -0.3181   -2.9519    0.7312 O   0  0  0  0  0  0  0  0  0  0  0  0
   -1.0281   -0.9259    0.0662 N   0  0  0  0  0  0  0  0  0  0  0  0
   -1.8301   -0.3519   -0.1548 H   0  0  0  0  0  0  0  0  0  0  0  0
    0.2709   -0.2409    0.0912 C   0  0  1  0  0  0  0  0  0  0  0  0
    0.1031    0.8237    0.2563 H   0  0  0  0  0  0  0  0  0  0  0  0
    1.1195   -0.7728    1.2534 C   0  0  0  0  0  0  0  0  0  0  0  0
    2.0370   -0.1862    1.3242 H   0  0  0  0  0  0  0  0  0  0  0  0
    0.5636   -0.6713    2.1872 H   0  0  0  0  0  0  0  0  0  0  0  0
    1.4621   -2.1306    1.0485 O   0  0  0  0  0  0  0  0  0  0  0  0
    2.1296   -2.3746    1.6987 H   0  0  0  0  0  0  0  0  0  0  0  0
    0.9947   -0.4058   -1.2555 C   0  0  0  0  0  0  0  0  0  0  0  0
    0.3810   -0.2370   -2.3099 O   0  0  0  0  0  0  0  0  0  0  0  0
    2.2940   -0.7216   -1.2274 N   0  0  0  0  0  0  0  0  0  0  0  0
    2.6886   -0.9310   -0.3200 H   0  0  0  0  0  0  0  0  0  0  0  0
    3.1338   -0.8946   -2.4109 C   0  0  0  0  0  0  0  0  0  0  0  0
    2.9534   -0.0793   -3.1148 H   0  0  0  0  0  0  0  0  0  0  0  0
    4.1868   -0.8979   -2.1278 H   0  0  0  0  0  0  0  0  0  0  0  0
    2.8875   -1.8393   -2.9001 H   0  0  0  0  0  0  0  0  0  0  0  0
  5  6  2  0  0  0  0
  5  7  1  0  0  0  0
  2  3  1  0  0  0  0
  2  4  1  0  0  0  0
  2  5  1  0  0  0  0
  1  2  1  0  0  0  0
 16 17  2  0  0  0  0
 16 18  1  0  0  0  0
 14 15  1  0  0  0  0
 11 12  1  0  0  0  0
 11 13  1  0  0  0  0
 11 14  1  0  0  0  0
  9 10  1  0  0  0  0
  9 11  1  0  0  0  0
  9 16  1  0  0  0  0
  7  8  1  0  0  0  0
  7  9  1  0  0  0  0
 20 21  1  0  0  0  0
 20 22  1  0  0  0  0
 20 23  1  0  0  0  0
 18 19  1  0  0  0  0
 18 20  1  0  0  0  0
M  END
$$$$
default_name
  -OEChem-01062215323D

 23 22  0     1  0  0  0  0  0999 V2000
   -2.6721   -3.7279    0.7212 H   0  0  0  0  0  0  0  0  0  0  0  0
   -2.6561   -2.6819    0.4162 C   0  0  0  0  0  0  0  0  0  0  0  0
   -3.2401   -2.0889    1.1172 H   0  0  0  0  0  0  0  0  0  0  0  0
   -3.0671   -2.5859   -0.5858 H   0  0  0  0  0  0  0  0  0  0  0  0
   -1.2261   -2.1939    0.4202 C   0  0  0  0  0  0  0  0  0  0  0  0
   -0.3181   -2.9519    0.7312 O   0  0  0  0  0  0  0  0  0  0  0  0
   -1.0281   -0.9259    0.0662 N   0  0  0  0  0  0  0  0  0  0  0  0
   -1.8301   -0.3519   -0.1548 H   0  0  0  0  0  0  0  0  0  0  0  0
    0.2709   -0.2409    0.0912 C   0  0  1  0  0  0  0  0  0  0  0  0
    0.1031    0.8237    0.2563 H   0  0  0  0  0  0  0  0  0  0  0  0
    1.1195   -0.7728    1.2534 C   0  0  0  0  0  0  0  0  0  0  0  0
    2.0370   -0.1862    1.3242 H   0  0  0  0  0  0  0  0  0  0  0  0
    0.5636   -0.6713    2.1872 H   0  0  0  0  0  0  0  0  0  0  0  0
    1.4621   -2.1306    1.0485 O   0  0  0  0  0  0  0  0  0  0  0  0
    2.1296   -2.3746    1.6987 H   0  0  0  0  0  0  0  0  0  0  0  0
    0.9947   -0.4058   -1.2555 C   0  0  0  0  0  0  0  0  0  0  0  0
    0.4793    0.0225   -2.2888 O   0  0  0  0  0  0  0  0  0  0  0  0
    2.1873   -1.0110   -1.2492 N   0  0  0  0  0  0  0  0  0  0  0  0
    2.4864   -1.4111   -0.3698 H   0  0  0  0  0  0  0  0  0  0  0  0
    3.0155   -1.2296   -2.4335 C   0  0  0  0  0  0  0  0  0  0  0  0
    3.0526   -0.3171   -3.0324 H   0  0  0  0  0  0  0  0  0  0  0  0
    4.0279   -1.5069   -2.1386 H   0  0  0  0  0  0  0  0  0  0  0  0
    2.5836   -2.0282   -3.0402 H   0  0  0  0  0  0  0  0  0  0  0  0
  5  6  2  0  0  0  0
  5  7  1  0  0  0  0
  2  3  1  0  0  0  0
  2  4  1  0  0  0  0
  2  5  1  0  0  0  0
  1  2  1  0  0  0  0
 16 17  2  0  0  0  0
 16 18  1  0  0  0  0
 14 15  1  0  0  0  0
 11 12  1  0  0  0  0
 11 13  1  0  0  0  0
 11 14  1  0  0  0  0
  9 10  1  0  0  0  0
  9 11  1  0  0  0  0
  9 16  1  0  0  0  0
  7  8  1  0  0  0  0
  7  9  1  0  0  0  0
 20 21  1  0  0  0  0
 20 22  1  0  0  0  0
 20 23  1  0  0  0  0
 18 19  1  0  0  0  0
 18 20  1  0  0  0  0
M  END
$$$$
default_name
  -OEChem-01062215323D

 23 22  0     1  0  0  0  0  0999 V2000
   -2.6721   -3.7279    0.7212 H   0  0  0  0  0  0  0  0  0  0  0  0
   -2.6561   -2.6819    0.4162 C   0  0  0  0  0  0  0  0  0  0  0  0
   -3.2401   -2.0889    1.1172 H   0  0  0  0  0  0  0  0  0  0  0  0
   -3.0671   -2.5859   -0.5858 H   0  0  0  0  0  0  0  0  0  0  0  0
   -1.2261   -2.1939    0.4202 C   0  0  0  0  0  0  0  0  0  0  0  0
   -0.3181   -2.9519    0.7312 O   0  0  0  0  0  0  0  0  0  0  0  0
   -1.0281   -0.9259    0.0662 N   0  0  0  0  0  0  0  0  0  0  0  0
   -1.8301   -0.3519   -0.1548 H   0  0  0  0  0  0  0  0  0  0  0  0
    0.2709   -0.2409    0.0912 C   0  0  1  0  0  0  0  0  0  0  0  0
    0.1031    0.8237    0.2563 H   0  0  0  0  0  0  0  0  0  0  0  0
    1.1195   -0.7728    1.2534 C   0  0  0  0  0  0  0  0  0  0  0  0
    2.0370   -0.1862    1.3242 H   0  0  0  0  0  0  0  0  0  0  0  0
    0.5636   -0.6713    2.1872 H   0  0  0  0  0  0  0  0  0  0  0  0
    1.4621   -2.1306    1.0485 O   0  0  0  0  0  0  0  0  0  0  0  0
    2.1296   -2.3746    1.6987 H   0  0  0  0  0  0  0  0  0  0  0  0
    0.9947   -0.4058   -1.2555 C   0  0  0  0  0  0  0  0  0  0  0  0
    0.6326    0.2484   -2.2341 O   0  0  0  0  0  0  0  0  0  0  0  0
    2.0193   -1.2637   -1.3086 N   0  0  0  0  0  0  0  0  0  0  0  0
    2.1837   -1.8230   -0.4821 H   0  0  0  0  0  0  0  0  0  0  0  0
    2.8258   -1.5236   -2.4994 C   0  0  0  0  0  0  0  0  0  0  0  0
    3.0923   -0.5793   -2.9789 H   0  0  0  0  0  0  0  0  0  0  0  0
    3.7367   -2.0578   -2.2276 H   0  0  0  0  0  0  0  0  0  0  0  0
    2.2511   -2.1247   -3.2071 H   0  0  0  0  0  0  0  0  0  0  0  0
  5  6  2  0  0  0  0
  5  7  1  0  0  0  0
  2  3  1  0  0  0  0
  2  4  1  0  0  0  0
  2  5  1  0  0  0  0
  1  2  1  0  0  0  0
 16 17  2  0  0  0  0
 16 18  1  0  0  0  0
 14 15  1  0  0  0  0
 11 12  1  0  0  0  0
 11 13  1  0  0  0  0
 11 14  1  0  0  0  0
  9 10  1  0  0  0  0
  9 11  1  0  0  0  0
  9 16  1  0  0  0  0
  7  8  1  0  0  0  0
  7  9  1  0  0  0  0
 20 21  1  0  0  0  0
 20 22  1  0  0  0  0
 20 23  1  0  0  0  0
 18 19  1  0  0  0  0
 18 20  1  0  0  0  0
M  END
$$$$
default_name
  -OEChem-01062215323D

 23 22  0     1  0  0  0  0  0999 V2000
   -2.6721   -3.7279    0.7212 H   0  0  0  0  0  0  0  0  0  0  0  0
   -2.6561   -2.6819    0.4162 C   0  0  0  0  0  0  0  0  0  0  0  0
   -3.2401   -2.0889    1.1172 H   0  0  0  0  0  0  0  0  0  0  0  0
   -3.0671   -2.5859   -0.5858 H   0  0  0  0  0  0  0  0  0  0  0  0
   -1.2261   -2.1939    0.4202 C   0  0  0  0  0  0  0  0  0  0  0  0
   -0.3181   -2.9519    0.7312 O   0  0  0  0  0  0  0  0  0  0  0  0
   -1.0281   -0.9259    0.0662 N   0  0  0  0  0  0  0  0  0  0  0  0
   -1.8301   -0.3519   -0.1548 H   0  0  0  0  0  0  0  0  0  0  0  0
    0.2709   -0.2409    0.0912 C   0  0  1  0  0  0  0  0  0  0  0  0
    0.1031    0.8237    0.2563 H   0  0  0  0  0  0  0  0  0  0  0  0
    1.1195   -0.7728    1.2534 C   0  0  0  0  0  0  0  0  0  0  0  0
    2.0370   -0.1862    1.3242 H   0  0  0  0  0  0  0  0  0  0  0  0
    0.5636   -0.6713    2.1872 H   0  0  0  0  0  0  0  0  0  0  0  0
    1.4621   -2.1306    1.0485 O   0  0  0  0  0  0  0  0  0  0  0  0
    2.1296   -2.3746    1.6987 H   0  0  0  0  0  0  0  0  0  0  0  0
    0.9947   -0.4058   -1.2555 C   0  0  0  0  0  0  0  0  0  0  0  0
    0.8302    0.4251   -2.1495 O   0  0  0  0  0  0  0  0  0  0  0  0
    1.8013   -1.4625   -1.4014 N   0  0  0  0  0  0  0  0  0  0  0  0
    1.8010   -2.1385   -0.6491 H   0  0  0  0  0  0  0  0  0  0  0  0
    2.5778   -1.7566   -2.6042 C   0  0  0  0  0  0  0  0  0  0  0  0
    3.0697   -0.8481   -2.9582 H   0  0  0  0  0  0  0  0  0  0  0  0
    3.3330   -2.5131   -2.3888 H   0  0  0  0  0  0  0  0  0  0  0  0
    1.9127   -2.1223   -3.3893 H   0  0  0  0  0  0  0  0  0  0  0  0
  5  6  2  0  0  0  0
  5  7  1  0  0  0  0
  2  3  1  0  0  0  0
  2  4  1  0  0  0  0
  2  5  1  0  0  0  0
  1  2  1  0  0  0  0
 16 17  2  0  0  0  0
 16 18  1  0  0  0  0
 14 15  1  0  0  0  0
 11 12  1  0  0  0  0
 11 13  1  0  0  0  0
 11 14  1  0  0  0  0
  9 10  1  0  0  0  0
  9 11  1  0  0  0  0
  9 16  1  0  0  0  0
  7  8  1  0  0  0  0
  7  9  1  0  0  0  0
 20 21  1  0  0  0  0
 20 22  1  0  0  0  0
 20 23  1  0  0  0  0
 18 19  1  0  0  0  0
 18 20  1  0  0  0  0
M  END
$$$$
default_name
  -OEChem-01062215323D

 23 22  0     1  0  0  0  0  0999 V2000
   -2.6721   -3.7279    0.7212 H   0  0  0  0  0  0  0  0  0  0  0  0
   -2.6561   -2.6819    0.4162 C   0  0  0  0  0  0  0  0  0  0  0  0
   -3.2401   -2.0889    1.1172 H   0  0  0  0  0  0  0  0  0  0  0  0
   -3.0671   -2.5859   -0.5858 H   0  0  0  0  0  0  0  0  0  0  0  0
   -1.2261   -2.1939    0.4202 C   0  0  0  0  0  0  0  0  0  0  0  0
   -0.3181   -2.9519    0.7312 O   0  0  0  0  0  0  0  0  0  0  0  0
   -1.0281   -0.9259    0.0662 N   0  0  0  0  0  0  0  0  0  0  0  0
   -1.8301   -0.3519   -0.1548 H   0  0  0  0  0  0  0  0  0  0  0  0
    0.2709   -0.2409    0.0912 C   0  0  1  0  0  0  0  0  0  0  0  0
    0.1031    0.8237    0.2563 H   0  0  0  0  0  0  0  0  0  0  0  0
    1.1195   -0.7728    1.2534 C   0  0  0  0  0  0  0  0  0  0  0  0
    2.0370   -0.1862    1.3242 H   0  0  0  0  0  0  0  0  0  0  0  0
    0.5636   -0.6713    2.1872 H   0  0  0  0  0  0  0  0  0  0  0  0
    1.4621   -2.1306    1.0485 O   0  0  0  0  0  0  0  0  0  0  0  0
    2.1296   -2.3746    1.6987 H   0  0  0  0  0  0  0  0  0  0  0  0
    0.9947   -0.4058   -1.2555 C   0  0  0  0  0  0  0  0  0  0  0  0
    1.0589    0.5407   -2.0408 O   0  0  0  0  0  0  0  0  0  0  0  0
    1.5483   -1.5939   -1.5213 N   0  0  0  0  0  0  0  0  0  0  0  0
    1.3645   -2.3363   -0.8595 H   0  0  0  0  0  0  0  0  0  0  0  0
    2.2884   -1.9127   -2.7407 C   0  0  0  0  0  0  0  0  0  0  0  0
    2.9863   -1.1051   -2.9715 H   0  0  0  0  0  0  0  0  0  0  0  0
    2.8444   -2.8417   -2.6112 H   0  0  0  0  0  0  0  0  0  0  0  0
    1.5915   -2.0210   -3.5743 H   0  0  0  0  0  0  0  0  0  0  0  0
  5  6  2  0  0  0  0
  5  7  1  0  0  0  0
  2  3  1  0  0  0  0
  2  4  1  0  0  0  0
  2  5  1  0  0  0  0
  1  2  1  0  0  0  0
 16 17  2  0  0  0  0
 16 18  1  0  0  0  0
 14 15  1  0  0  0  0
 11 12  1  0  0  0  0
 11 13  1  0  0  0  0
 11 14  1  0  0  0  0
  9 10  1  0  0  0  0
  9 11  1  0  0  0  0
  9 16  1  0  0  0  0
  7  8  1  0  0  0  0
  7  9  1  0  0  0  0
 20 21  1  0  0  0  0
 20 22  1  0  0  0  0
 20 23  1  0  0  0  0
 18 19  1  0  0  0  0
 18 20  1  0  0  0  0
M  END
$$$$
default_name
  -OEChem-01062215323D

 23 22  0     1  0  0  0  0  0999 V2000
   -2.6721   -3.7279    0.7212 H   0  0  0  0  0  0  0  0  0  0  0  0
   -2.6561   -2.6819    0.4162 C   0  0  0  0  0  0  0  0  0  0  0  0
   -3.2401   -2.0889    1.1172 H   0  0  0  0  0  0  0  0  0  0  0  0
   -3.0671   -2.5859   -0.5858 H   0  0  0  0  0  0  0  0  0  0  0  0
   -1.2261   -2.1939    0.4202 C   0  0  0  0  0  0  0  0  0  0  0  0
   -0.3181   -2.9519    0.7312 O   0  0  0  0  0  0  0  0  0  0  0  0
   -1.0281   -0.9259    0.0662 N   0  0  0  0  0  0  0  0  0  0  0  0
   -1.8301   -0.3519   -0.1548 H   0  0  0  0  0  0  0  0  0  0  0  0
    0.2709   -0.2409    0.0912 C   0  0  1  0  0  0  0  0  0  0  0  0
    0.1031    0.8237    0.2563 H   0  0  0  0  0  0  0  0  0  0  0  0
    1.1195   -0.7728    1.2534 C   0  0  0  0  0  0  0  0  0  0  0  0
    2.0370   -0.1862    1.3242 H   0  0  0  0  0  0  0  0  0  0  0  0
    0.5636   -0.6713    2.1872 H   0  0  0  0  0  0  0  0  0  0  0  0
    1.4621   -2.1306    1.0485 O   0  0  0  0  0  0  0  0  0  0  0  0
    2.1296   -2.3746    1.6987 H   0  0  0  0  0  0  0  0  0  0  0  0
    0.9947   -0.4058   -1.2555 C   0  0  0  0  0  0  0  0  0  0  0  0
    1.3030    0.5873   -1.9153 O   0  0  0  0  0  0  0  0  0  0  0  0
    1.2775   -1.6488   -1.6601 N   0  0  0  0  0  0  0  0  0  0  0  0
    0.9039   -2.4027   -1.0989 H   0  0  0  0  0  0  0  0  0  0  0  0
    1.9772   -1.9812   -2.8995 C   0  0  0  0  0  0  0  0  0  0  0  0
    2.8480   -1.3329   -3.0179 H   0  0  0  0  0  0  0  0  0  0  0  0
    2.3041   -3.0213   -2.8796 H   0  0  0  0  0  0  0  0  0  0  0  0
    1.3093   -1.8279   -3.7497 H   0  0  0  0  0  0  0  0  0  0  0  0
  5  6  2  0  0  0  0
  5  7  1  0  0  0  0
  2  3  1  0  0  0  0
  2  4  1  0  0  0  0
  2  5  1  0  0  0  0
  1  2  1  0  0  0  0
 16 17  2  0  0  0  0
 16 18  1  0  0  0  0
 14 15  1  0  0  0  0
 11 12  1  0  0  0  0
 11 13  1  0  0  0  0
 11 14  1  0  0  0  0
  9 10  1  0  0  0  0
  9 11  1  0  0  0  0
  9 16  1  0  0  0  0
  7  8  1  0  0  0  0
  7  9  1  0  0  0  0
 20 21  1  0  0  0  0
 20 22  1  0  0  0  0
 20 23  1  0  0  0  0
 18 19  1  0  0  0  0
 18 20  1  0  0  0  0
M  END
$$$$
default_name
  -OEChem-01062215323D

 23 22  0     1  0  0  0  0  0999 V2000
   -2.6721   -3.7279    0.7212 H   0  0  0  0  0  0  0  0  0  0  0  0
   -2.6561   -2.6819    0.4162 C   0  0  0  0  0  0  0  0  0  0  0  0
   -3.2401   -2.0889    1.1172 H   0  0  0  0  0  0  0  0  0  0  0  0
   -3.0671   -2.5859   -0.5858 H   0  0  0  0  0  0  0  0  0  0  0  0
   -1.2261   -2.1939    0.4202 C   0  0  0  0  0  0  0  0  0  0  0  0
   -0.3181   -2.9519    0.7312 O   0  0  0  0  0  0  0  0  0  0  0  0
   -1.0281   -0.9259    0.0662 N   0  0  0  0  0  0  0  0  0  0  0  0
   -1.8301   -0.3519   -0.1548 H   0  0  0  0  0  0  0  0  0  0  0  0
    0.2709   -0.2409    0.0912 C   0  0  1  0  0  0  0  0  0  0  0  0
    0.1031    0.8237    0.2563 H   0  0  0  0  0  0  0  0  0  0  0  0
    1.1195   -0.7728    1.2534 C   0  0  0  0  0  0  0  0  0  0  0  0
    2.0370   -0.1862    1.3242 H   0  0  0  0  0  0  0  0  0  0  0  0
    0.5636   -0.6713    2.1872 H   0  0  0  0  0  0  0  0  0  0  0  0
    1.4621   -2.1306    1.0485 O   0  0  0  0  0  0  0  0  0  0  0  0
    2.1296   -2.3746    1.6987 H   0  0  0  0  0  0  0  0  0  0  0  0
    0.9947   -0.4058   -1.2555 C   0  0  0  0  0  0  0  0  0  0  0  0
    1.5458    0.5618   -1.7817 O   0  0  0  0  0  0  0  0  0  0  0  0
    1.0073   -1.6235   -1.8084 N   0  0  0  0  0  0  0  0  0  0  0  0
    0.4506   -2.3333   -1.3511 H   0  0  0  0  0  0  0  0  0  0  0  0
    1.6655   -1.9575   -3.0699 C   0  0  0  0  0  0  0  0  0  0  0  0
    2.6640   -1.5158   -3.0944 H   0  0  0  0  0  0  0  0  0  0  0  0
    1.7489   -3.0396   -3.1758 H   0  0  0  0  0  0  0  0  0  0  0  0
    1.0854   -1.5560   -3.9034 H   0  0  0  0  0  0  0  0  0  0  0  0
  5  6  2  0  0  0  0
  5  7  1  0  0  0  0
  2  3  1  0  0  0  0
  2  4  1  0  0  0  0
  2  5  1  0  0  0  0
  1  2  1  0  0  0  0
 16 17  2  0  0  0  0
 16 18  1  0  0  0  0
 14 15  1  0  0  0  0
 11 12  1  0  0  0  0
 11 13  1  0  0  0  0
 11 14  1  0  0  0  0
  9 10  1  0  0  0  0
  9 11  1  0  0  0  0
  9 16  1  0  0  0  0
  7  8  1  0  0  0  0
  7  9  1  0  0  0  0
 20 21  1  0  0  0  0
 20 22  1  0  0  0  0
 20 23  1  0  0  0  0
 18 19  1  0  0  0  0
 18 20  1  0  0  0  0
M  END
$$$$
default_name
  -OEChem-01062215323D

 23 22  0     1  0  0  0  0  0999 V2000
   -2.6721   -3.7279    0.7212 H   0  0  0  0  0  0  0  0  0  0  0  0
   -2.6561   -2.6819    0.4162 C   0  0  0  0  0  0  0  0  0  0  0  0
   -3.2401   -2.0889    1.1172 H   0  0  0  0  0  0  0  0  0  0  0  0
   -3.0671   -2.5859   -0.5858 H   0  0  0  0  0  0  0  0  0  0  0  0
   -1.2261   -2.1939    0.4202 C   0  0  0  0  0  0  0  0  0  0  0  0
   -0.3181   -2.9519    0.7312 O   0  0  0  0  0  0  0  0  0  0  0  0
   -1.0281   -0.9259    0.0662 N   0  0  0  0  0  0  0  0  0  0  0  0
   -1.8301   -0.3519   -0.1548 H   0  0  0  0  0  0  0  0  0  0  0  0
    0.2709   -0.2409    0.0912 C   0  0  1  0  0  0  0  0  0  0  0  0
    0.1031    0.8237    0.2563 H   0  0  0  0  0  0  0  0  0  0  0  0
    1.1195   -0.7728    1.2534 C   0  0  0  0  0  0  0  0  0  0  0  0
    2.0370   -0.1862    1.3242 H   0  0  0  0  0  0  0  0  0  0  0  0
    0.5636   -0.6713    2.1872 H   0  0  0  0  0  0  0  0  0  0  0  0
    1.4621   -2.1306    1.0485 O   0  0  0  0  0  0  0  0  0  0  0  0
    2.1296   -2.3746    1.6987 H   0  0  0  0  0  0  0  0  0  0  0  0
    0.9947   -0.4058   -1.2555 C   0  0  0  0  0  0  0  0  0  0  0  0
    1.7708    0.4657   -1.6490 O   0  0  0  0  0  0  0  0  0  0  0  0
    0.7562   -1.5198   -1.9561 N   0  0  0  0  0  0  0  0  0  0  0  0
    0.0355   -2.1328   -1.5988 H   0  0  0  0  0  0  0  0  0  0  0  0
    1.3745   -1.8432   -3.2403 C   0  0  0  0  0  0  0  0  0  0  0  0
    2.4469   -1.6415   -3.1957 H   0  0  0  0  0  0  0  0  0  0  0  0
    1.2168   -2.8953   -3.4794 H   0  0  0  0  0  0  0  0  0  0  0  0
    0.9350   -1.2238   -4.0249 H   0  0  0  0  0  0  0  0  0  0  0  0
  5  6  2  0  0  0  0
  5  7  1  0  0  0  0
  2  3  1  0  0  0  0
  2  4  1  0  0  0  0
  2  5  1  0  0  0  0
  1  2  1  0  0  0  0
 16 17  2  0  0  0  0
 16 18  1  0  0  0  0
 14 15  1  0  0  0  0
 11 12  1  0  0  0  0
 11 13  1  0  0  0  0
 11 14  1  0  0  0  0
  9 10  1  0  0  0  0
  9 11  1  0  0  0  0
  9 16  1  0  0  0  0
  7  8  1  0  0  0  0
  7  9  1  0  0  0  0
 20 21  1  0  0  0  0
 20 22  1  0  0  0  0
 20 23  1  0  0  0  0
 18 19  1  0  0  0  0
 18 20  1  0  0  0  0
M  END
$$$$
default_name
  -OEChem-01062215323D

 23 22  0     1  0  0  0  0  0999 V2000
   -2.6721   -3.7279    0.7212 H   0  0  0  0  0  0  0  0  0  0  0  0
   -2.6561   -2.6819    0.4162 C   0  0  0  0  0  0  0  0  0  0  0  0
   -3.2401   -2.0889    1.1172 H   0  0  0  0  0  0  0  0  0  0  0  0
   -3.0671   -2.5859   -0.5858 H   0  0  0  0  0  0  0  0  0  0  0  0
   -1.2261   -2.1939    0.4202 C   0  0  0  0  0  0  0  0  0  0  0  0
   -0.3181   -2.9519    0.7312 O   0  0  0  0  0  0  0  0  0  0  0  0
   -1.0281   -0.9259    0.0662 N   0  0  0  0  0  0  0  0  0  0  0  0
   -1.8301   -0.3519   -0.1548 H   0  0  0  0  0  0  0  0  0  0  0  0
    0.2709   -0.2409    0.0912 C   0  0  1  0  0  0  0  0  0  0  0  0
    0.1031    0.8237    0.2563 H   0  0  0  0  0  0  0  0  0  0  0  0
    1.1195   -0.7728    1.2534 C   0  0  0  0  0  0  0  0  0  0  0  0
    2.0370   -0.1862    1.3242 H   0  0  0  0  0  0  0  0  0  0  0  0
    0.5636   -0.6713    2.1872 H   0  0  0  0  0  0  0  0  0  0  0  0
    1.4621   -2.1306    1.0485 O   0  0  0  0  0  0  0  0  0  0  0  0
    2.1296   -2.3746    1.6987 H   0  0  0  0  0  0  0  0  0  0  0  0
    0.9947   -0.4058   -1.2555 C   0  0  0  0  0  0  0  0  0  0  0  0
    1.9627    0.3058   -1.5262 O   0  0  0  0  0  0  0  0  0  0  0  0
    0.5413   -1.3447   -2.0931 N   0  0  0  0  0  0  0  0  0  0  0  0
   -0.3132   -1.8148   -1.8251 H   0  0  0  0  0  0  0  0  0  0  0  0
    1.1241   -1.6461   -3.3991 C   0  0  0  0  0  0  0  0  0  0  0  0
    2.2115   -1.7014   -3.3149 H   0  0  0  0  0  0  0  0  0  0  0  0
    0.7439   -2.5984   -3.7700 H   0  0  0  0  0  0  0  0  0  0  0  0
    0.8683   -0.8541   -4.1060 H   0  0  0  0  0  0  0  0  0  0  0  0
  5  6  2  0  0  0  0
  5  7  1  0  0  0  0
  2  3  1  0  0  0  0
  2  4  1  0  0  0  0
  2  5  1  0  0  0  0
  1  2  1  0  0  0  0
 16 17  2  0  0  0  0
 16 18  1  0  0  0  0
 14 15  1  0  0  0  0
 11 12  1  0  0  0  0
 11 13  1  0  0  0  0
 11 14  1  0  0  0  0
  9 10  1  0  0  0  0
  9 11  1  0  0  0  0
  9 16  1  0  0  0  0
  7  8  1  0  0  0  0
  7  9  1  0  0  0  0
 20 21  1  0  0  0  0
 20 22  1  0  0  0  0
 20 23  1  0  0  0  0
 18 19  1  0  0  0  0
 18 20  1  0  0  0  0
M  END
$$$$
default_name
  -OEChem-01062215323D

 23 22  0     1  0  0  0  0  0999 V2000
   -2.6721   -3.7279    0.7212 H   0  0  0  0  0  0  0  0  0  0  0  0
   -2.6561   -2.6819    0.4162 C   0  0  0  0  0  0  0  0  0  0  0  0
   -3.2401   -2.0889    1.1172 H   0  0  0  0  0  0  0  0  0  0  0  0
   -3.0671   -2.5859   -0.5858 H   0  0  0  0  0  0  0  0  0  0  0  0
   -1.2261   -2.1939    0.4202 C   0  0  0  0  0  0  0  0  0  0  0  0
   -0.3181   -2.9519    0.7312 O   0  0  0  0  0  0  0  0  0  0  0  0
   -1.0281   -0.9259    0.0662 N   0  0  0  0  0  0  0  0  0  0  0  0
   -1.8301   -0.3519   -0.1548 H   0  0  0  0  0  0  0  0  0  0  0  0
    0.2709   -0.2409    0.0912 C   0  0  1  0  0  0  0  0  0  0  0  0
    0.1031    0.8237    0.2563 H   0  0  0  0  0  0  0  0  0  0  0  0
    1.1195   -0.7728    1.2534 C   0  0  0  0  0  0  0  0  0  0  0  0
    2.0370   -0.1862    1.3242 H   0  0  0  0  0  0  0  0  0  0  0  0
    0.5636   -0.6713    2.1872 H   0  0  0  0  0  0  0  0  0  0  0  0
    1.4621   -2.1306    1.0485 O   0  0  0  0  0  0  0  0  0  0  0  0
    2.1296   -2.3746    1.6987 H   0  0  0  0  0  0  0  0  0  0  0  0
    0.9947   -0.4058   -1.2555 C   0  0  0  0  0  0  0  0  0  0  0  0
    2.1084    0.0929   -1.4218 O   0  0  0  0  0  0  0  0  0  0  0  0
    0.3771   -1.1102   -2.2100 N   0  0  0  0  0  0  0  0  0  0  0  0
   -0.5716   -1.4011   -2.0147 H   0  0  0  0  0  0  0  0  0  0  0  0
    0.9313   -1.3796   -3.5353 C   0  0  0  0  0  0  0  0  0  0  0  0
    1.9739   -1.6914   -3.4438 H   0  0  0  0  0  0  0  0  0  0  0  0
    0.3625   -2.1690   -4.0276 H   0  0  0  0  0  0  0  0  0  0  0  0
    0.8900   -0.4720   -4.1411 H   0  0  0  0  0  0  0  0  0  0  0  0
  5  6  2  0  0  0  0
  5  7  1  0  0  0  0
  2  3  1  0  0  0  0
  2  4  1  0  0  0  0
  2  5  1  0  0  0  0
  1  2  1  0  0  0  0
 16 17  2  0  0  0  0
 16 18  1  0  0  0  0
 14 15  1  0  0  0  0
 11 12  1  0  0  0  0
 11 13  1  0  0  0  0
 11 14  1  0  0  0  0
  9 10  1  0  0  0  0
  9 11  1  0  0  0  0
  9 16  1  0  0  0  0
  7  8  1  0  0  0  0
  7  9  1  0  0  0  0
 20 21  1  0  0  0  0
 20 22  1  0  0  0  0
 20 23  1  0  0  0  0
 18 19  1  0  0  0  0
 18 20  1  0  0  0  0
M  END
$$$$
default_name
  -OEChem-01062215323D

 23 22  0     1  0  0  0  0  0999 V2000
   -2.6721   -3.7279    0.7212 H   0  0  0  0  0  0  0  0  0  0  0  0
   -2.6561   -2.6819    0.4162 C   0  0  0  0  0  0  0  0  0  0  0  0
   -3.2401   -2.0889    1.1172 H   0  0  0  0  0  0  0  0  0  0  0  0
   -3.0671   -2.5859   -0.5858 H   0  0  0  0  0  0  0  0  0  0  0  0
   -1.2261   -2.1939    0.4202 C   0  0  0  0  0  0  0  0  0  0  0  0
   -0.3181   -2.9519    0.7312 O   0  0  0  0  0  0  0  0  0  0  0  0
   -1.0281   -0.9259    0.0662 N   0  0  0  0  0  0  0  0  0  0  0  0
   -1.8301   -0.3519   -0.1548 H   0  0  0  0  0  0  0  0  0  0  0  0
    0.2709   -0.2409    0.0912 C   0  0  1  0  0  0  0  0  0  0  0  0
    0.1031    0.8237    0.2563 H   0  0  0  0  0  0  0  0  0  0  0  0
    1.1195   -0.7728    1.2534 C   0  0  0  0  0  0  0  0  0  0  0  0
    2.0370   -0.1862    1.3242 H   0  0  0  0  0  0  0  0  0  0  0  0
    0.5636   -0.6713    2.1872 H   0  0  0  0  0  0  0  0  0  0  0  0
    1.4621   -2.1306    1.0485 O   0  0  0  0  0  0  0  0  0  0  0  0
    2.1296   -2.3746    1.6987 H   0  0  0  0  0  0  0  0  0  0  0  0
    0.9947   -0.4058   -1.2555 C   0  0  0  0  0  0  0  0  0  0  0  0
    2.1980   -0.1586   -1.3429 O   0  0  0  0  0  0  0  0  0  0  0  0
    0.2749   -0.8322   -2.2990 N   0  0  0  0  0  0  0  0  0  0  0  0
   -0.7222   -0.9198   -2.1546 H   0  0  0  0  0  0  0  0  0  0  0  0
    0.8093   -1.0619   -3.6399 C   0  0  0  0  0  0  0  0  0  0  0  0
    1.7503   -1.6122   -3.5737 H   0  0  0  0  0  0  0  0  0  0  0  0
    0.0985   -1.6364   -4.2347 H   0  0  0  0  0  0  0  0  0  0  0  0
    0.9985   -0.1036   -4.1279 H   0  0  0  0  0  0  0  0  0  0  0  0
  5  6  2  0  0  0  0
  5  7  1  0  0  0  0
  2  3  1  0  0  0  0
  2  4  1  0  0  0  0
  2  5  1  0  0  0  0
  1  2  1  0  0  0  0
 16 17  2  0  0  0  0
 16 18  1  0  0  0  0
 14 15  1  0  0  0  0
 11 12  1  0  0  0  0
 11 13  1  0  0  0  0
 11 14  1  0  0  0  0
  9 10  1  0  0  0  0
  9 11  1  0  0  0  0
  9 16  1  0  0  0  0
  7  8  1  0  0  0  0
  7  9  1  0  0  0  0
 20 21  1  0  0  0  0
 20 22  1  0  0  0  0
 20 23  1  0  0  0  0
 18 19  1  0  0  0  0
 18 20  1  0  0  0  0
M  END
$$$$
default_name
  -OEChem-01062215323D

 23 22  0     1  0  0  0  0  0999 V2000
   -2.6721   -3.7279    0.7212 H   0  0  0  0  0  0  0  0  0  0  0  0
   -2.6561   -2.6819    0.4162 C   0  0  0  0  0  0  0  0  0  0  0  0
   -3.2401   -2.0889    1.1172 H   0  0  0  0  0  0  0  0  0  0  0  0
   -3.0671   -2.5859   -0.5858 H   0  0  0  0  0  0  0  0  0  0  0  0
   -1.2261   -2.1939    0.4202 C   0  0  0  0  0  0  0  0  0  0  0  0
   -0.3181   -2.9519    0.7312 O   0  0  0  0  0  0  0  0  0  0  0  0
   -1.0281   -0.9259    0.0662 N   0  0  0  0  0  0  0  0  0  0  0  0
   -1.8301   -0.3519   -0.1548 H   0  0  0  0  0  0  0  0  0  0  0  0
    0.2709   -0.2409    0.0912 C   0  0  1  0  0  0  0  0  0  0  0  0
    0.1031    0.8237    0.2563 H   0  0  0  0  0  0  0  0  0  0  0  0
    1.1195   -0.7728    1.2534 C   0  0  0  0  0  0  0  0  0  0  0  0
    2.0370   -0.1862    1.3242 H   0  0  0  0  0  0  0  0  0  0  0  0
    0.5636   -0.6713    2.1872 H   0  0  0  0  0  0  0  0  0  0  0  0
    1.4621   -2.1306    1.0485 O   0  0  0  0  0  0  0  0  0  0  0  0
    2.1296   -2.3746    1.6987 H   0  0  0  0  0  0  0  0  0  0  0  0
    0.9947   -0.4058   -1.2555 C   0  0  0  0  0  0  0  0  0  0  0  0
    2.2254   -0.4314   -1.2948 O   0  0  0  0  0  0  0  0  0  0  0  0
    0.2418   -0.5297   -2.3539 N   0  0  0  0  0  0  0  0  0  0  0  0
   -0.7547   -0.4038   -2.2352 H   0  0  0  0  0  0  0  0  0  0  0  0
    0.7663   -0.7146   -3.7055 C   0  0  0  0  0  0  0  0  0  0  0  0
    1.5558   -1.4691   -3.6958 H   0  0  0  0  0  0  0  0  0  0  0  0
   -0.0299   -1.0369   -4.3772 H   0  0  0  0  0  0  0  0  0  0  0  0
    1.1865    0.2261   -4.0673 H   0  0  0  0  0  0  0  0  0  0  0  0
  5  6  2  0  0  0  0
  5  7  1  0  0  0  0
  2  3  1  0  0  0  0
  2  4  1  0  0  0  0
  2  5  1  0  0  0  0
  1  2  1  0  0  0  0
 16 17  2  0  0  0  0
 16 18  1  0  0  0  0
 14 15  1  0  0  0  0
 11 12  1  0  0  0  0
 11 13  1  0  0  0  0
 11 14  1  0  0  0  0
  9 10  1  0  0  0  0
  9 11  1  0  0  0  0
  9 16  1  0  0  0  0
  7  8  1  0  0  0  0
  7  9  1  0  0  0  0
 20 21  1  0  0  0  0
 20 22  1  0  0  0  0
 20 23  1  0  0  0  0
 18 19  1  0  0  0  0
 18 20  1  0  0  0  0
M  END
$$$$
default_name
  -OEChem-01062215323D

 23 22  0     1  0  0  0  0  0999 V2000
   -2.6721   -3.7279    0.7212 H   0  0  0  0  0  0  0  0  0  0  0  0
   -2.6561   -2.6819    0.4162 C   0  0  0  0  0  0  0  0  0  0  0  0
   -3.2401   -2.0889    1.1172 H   0  0  0  0  0  0  0  0  0  0  0  0
   -3.0671   -2.5859   -0.5858 H   0  0  0  0  0  0  0  0  0  0  0  0
   -1.2261   -2.1939    0.4202 C   0  0  0  0  0  0  0  0  0  0  0  0
   -0.3181   -2.9519    0.7312 O   0  0  0  0  0  0  0  0  0  0  0  0
   -1.0281   -0.9259    0.0662 N   0  0  0  0  0  0  0  0  0  0  0  0
   -1.8301   -0.3519   -0.1548 H   0  0  0  0  0  0  0  0  0  0  0  0
    0.2709   -0.2409    0.0912 C   0  0  1  0  0  0  0  0  0  0  0  0
    0.1031    0.8237    0.2563 H   0  0  0  0  0  0  0  0  0  0  0  0
    1.1195   -0.7728    1.2534 C   0  0  0  0  0  0  0  0  0  0  0  0
    2.0370   -0.1862    1.3242 H   0  0  0  0  0  0  0  0  0  0  0  0
    0.5636   -0.6713    2.1872 H   0  0  0  0  0  0  0  0  0  0  0  0
    1.4621   -2.1306    1.0485 O   0  0  0  0  0  0  0  0  0  0  0  0
    2.1296   -2.3746    1.6987 H   0  0  0  0  0  0  0  0  0  0  0  0
    0.9947   -0.4058   -1.2555 C   0  0  0  0  0  0  0  0  0  0  0  0
    2.1886   -0.7069   -1.2808 O   0  0  0  0  0  0  0  0  0  0  0  0
    0.2798   -0.2233   -2.3710 N   0  0  0  0  0  0  0  0  0  0  0  0
   -0.6669    0.1119   -2.2512 H   0  0  0  0  0  0  0  0  0  0  0  0
    0.8053   -0.3614   -3.7278 C   0  0  0  0  0  0  0  0  0  0  0  0
    1.4038   -1.2720   -3.8016 H   0  0  0  0  0  0  0  0  0  0  0  0
   -0.0142   -0.4113   -4.4453 H   0  0  0  0  0  0  0  0  0  0  0  0
    1.4411    0.4945   -3.9633 H   0  0  0  0  0  0  0  0  0  0  0  0
  5  6  2  0  0  0  0
  5  7  1  0  0  0  0
  2  3  1  0  0  0  0
  2  4  1  0  0  0  0
  2  5  1  0  0  0  0
  1  2  1  0  0  0  0
 16 17  2  0  0  0  0
 16 18  1  0  0  0  0
 14 15  1  0  0  0  0
 11 12  1  0  0  0  0
 11 13  1  0  0  0  0
 11 14  1  0  0  0  0
  9 10  1  0  0  0  0
  9 11  1  0  0  0  0
  9 16  1  0  0  0  0
  7  8  1  0  0  0  0
  7  9  1  0  0  0  0
 20 21  1  0  0  0  0
 20 22  1  0  0  0  0
 20 23  1  0  0  0  0
 18 19  1  0  0  0  0
 18 20  1  0  0  0  0
M  END
$$$$
default_name
  -OEChem-01062215323D

 23 22  0     1  0  0  0  0  0999 V2000
   -2.6721   -3.7279    0.7212 H   0  0  0  0  0  0  0  0  0  0  0  0
   -2.6561   -2.6819    0.4162 C   0  0  0  0  0  0  0  0  0  0  0  0
   -3.2401   -2.0889    1.1172 H   0  0  0  0  0  0  0  0  0  0  0  0
   -3.0671   -2.5859   -0.5858 H   0  0  0  0  0  0  0  0  0  0  0  0
   -1.2261   -2.1939    0.4202 C   0  0  0  0  0  0  0  0  0  0  0  0
   -0.3181   -2.9519    0.7312 O   0  0  0  0  0  0  0  0  0  0  0  0
   -1.0281   -0.9259    0.0662 N   0  0  0  0  0  0  0  0  0  0  0  0
   -1.8301   -0.3519   -0.1548 H   0  0  0  0  0  0  0  0  0  0  0  0
    0.2709   -0.2409    0.0912 C   0  0  1  0  0  0  0  0  0  0  0  0
    0.1031    0.8237    0.2563 H   0  0  0  0  0  0  0  0  0  0  0  0
    1.1195   -0.7728    1.2534 C   0  0  0  0  0  0  0  0  0  0  0  0
    2.0370   -0.1862    1.3242 H   0  0  0  0  0  0  0  0  0  0  0  0
    0.5636   -0.6713    2.1872 H   0  0  0  0  0  0  0  0  0  0  0  0
    1.4621   -2.1306    1.0485 O   0  0  0  0  0  0  0  0  0  0  0  0
    2.1296   -2.3746    1.6987 H   0  0  0  0  0  0  0  0  0  0  0  0
    0.9947   -0.4058   -1.2555 C   0  0  0  0  0  0  0  0  0  0  0  0
    2.0903   -0.9664   -1.3018 O   0  0  0  0  0  0  0  0  0  0  0  0
    0.3864    0.0662   -2.3491 N   0  0  0  0  0  0  0  0  0  0  0  0
   -0.4647    0.5921   -2.2014 H   0  0  0  0  0  0  0  0  0  0  0  0
    0.9237   -0.0264   -3.7052 C   0  0  0  0  0  0  0  0  0  0  0  0
    1.3045   -1.0342   -3.8841 H   0  0  0  0  0  0  0  0  0  0  0  0
    0.1447    0.1977   -4.4345 H   0  0  0  0  0  0  0  0  0  0  0  0
    1.7450    0.6834   -3.8231 H   0  0  0  0  0  0  0  0  0  0  0  0
  5  6  2  0  0  0  0
  5  7  1  0  0  0  0
  2  3  1  0  0  0  0
  2  4  1  0  0  0  0
  2  5  1  0  0  0  0
  1  2  1  0  0  0  0
 16 17  2  0  0  0  0
 16 18  1  0  0  0  0
 14 15  1  0  0  0  0
 11 12  1  0  0  0  0
 11 13  1  0  0  0  0
 11 14  1  0  0  0  0
  9 10  1  0  0  0  0
  9 11  1  0  0  0  0
  9 16  1  0  0  0  0
  7  8  1  0  0  0  0
  7  9  1  0  0  0  0
 20 21  1  0  0  0  0
 20 22  1  0  0  0  0
 20 23  1  0  0  0  0
 18 19  1  0  0  0  0
 18 20  1  0  0  0  0
M  END
$$$$
default_name
  -OEChem-01062215323D

 23 22  0     1  0  0  0  0  0999 V2000
   -2.6721   -3.7279    0.7212 H   0  0  0  0  0  0  0  0  0  0  0  0
   -2.6561   -2.6819    0.4162 C   0  0  0  0  0  0  0  0  0  0  0  0
   -3.2401   -2.0889    1.1172 H   0  0  0  0  0  0  0  0  0  0  0  0
   -3.0671   -2.5859   -0.5858 H   0  0  0  0  0  0  0  0  0  0  0  0
   -1.2261   -2.1939    0.4202 C   0  0  0  0  0  0  0  0  0  0  0  0
   -0.3181   -2.9519    0.7312 O   0  0  0  0  0  0  0  0  0  0  0  0
   -1.0281   -0.9259    0.0662 N   0  0  0  0  0  0  0  0  0  0  0  0
   -1.8301   -0.3519   -0.1548 H   0  0  0  0  0  0  0  0  0  0  0  0
    0.2709   -0.2409    0.0912 C   0  0  1  0  0  0  0  0  0  0  0  0
    0.1031    0.8237    0.2563 H   0  0  0  0  0  0  0  0  0  0  0  0
    1.1195   -0.7728    1.2534 C   0  0  0  0  0  0  0  0  0  0  0  0
    2.0370   -0.1862    1.3242 H   0  0  0  0  0  0  0  0  0  0  0  0
    0.5636   -0.6713    2.1872 H   0  0  0  0  0  0  0  0  0  0  0  0
    1.4621   -2.1306    1.0485 O   0  0  0  0  0  0  0  0  0  0  0  0
    2.1296   -2.3746    1.6987 H   0  0  0  0  0  0  0  0  0  0  0  0
    0.9947   -0.4058   -1.2555 C   0  0  0  0  0  0  0  0  0  0  0  0
    1.9370   -1.1923   -1.3565 O   0  0  0  0  0  0  0  0  0  0  0  0
    0.5545    0.3189   -2.2897 N   0  0  0  0  0  0  0  0  0  0  0  0
   -0.1620    1.0040   -2.0891 H   0  0  0  0  0  0  0  0  0  0  0  0
    1.1133    0.2676   -3.6393 C   0  0  0  0  0  0  0  0  0  0  0  0
    1.2649   -0.7720   -3.9375 H   0  0  0  0  0  0  0  0  0  0  0  0
    0.4359    0.7486   -4.3455 H   0  0  0  0  0  0  0  0  0  0  0  0
    2.0775    0.7800   -3.6562 H   0  0  0  0  0  0  0  0  0  0  0  0
  5  6  2  0  0  0  0
  5  7  1  0  0  0  0
  2  3  1  0  0  0  0
  2  4  1  0  0  0  0
  2  5  1  0  0  0  0
  1  2  1  0  0  0  0
 16 17  2  0  0  0  0
 16 18  1  0  0  0  0
 14 15  1  0  0  0  0
 11 12  1  0  0  0  0
 11 13  1  0  0  0  0
 11 14  1  0  0  0  0
  9 10  1  0  0  0  0
  9 11  1  0  0  0  0
  9 16  1  0  0  0  0
  7  8  1  0  0  0  0
  7  9  1  0  0  0  0
 20 21  1  0  0  0  0
 20 22  1  0  0  0  0
 20 23  1  0  0  0  0
 18 19  1  0  0  0  0
 18 20  1  0  0  0  0
M  END
$$$$
default_name
  -OEChem-01062215323D

 23 22  0     1  0  0  0  0  0999 V2000
   -2.6721   -3.7279    0.7212 H   0  0  0  0  0  0  0  0  0  0  0  0
   -2.6561   -2.6819    0.4162 C   0  0  0  0  0  0  0  0  0  0  0  0
   -3.2401   -2.0889    1.1172 H   0  0  0  0  0  0  0  0  0  0  0  0
   -3.0671   -2.5859   -0.5858 H   0  0  0  0  0  0  0  0  0  0  0  0
   -1.2261   -2.1939    0.4202 C   0  0  0  0  0  0  0  0  0  0  0  0
   -0.3181   -2.9519    0.7312 O   0  0  0  0  0  0  0  0  0  0  0  0
   -1.0281   -0.9259    0.0662 N   0  0  0  0  0  0  0  0  0  0  0  0
   -1.8301   -0.3519   -0.1548 H   0  0  0  0  0  0  0  0  0  0  0  0
    0.2709   -0.2409    0.0912 C   0  0  1  0  0  0  0  0  0  0  0  0
    0.1031    0.8237    0.2563 H   0  0  0  0  0  0  0  0  0  0  0  0
    1.1195   -0.7728    1.2534 C   0  0  0  0  0  0  0  0  0  0  0  0
    2.0370   -0.1862    1.3242 H   0  0  0  0  0  0  0  0  0  0  0  0
    0.5636   -0.6713    2.1872 H   0  0  0  0  0  0  0  0  0  0  0  0
    1.4621   -2.1306    1.0485 O   0  0  0  0  0  0  0  0  0  0  0  0
    2.1296   -2.3746    1.6987 H   0  0  0  0  0  0  0  0  0  0  0  0
    0.9947   -0.4058   -1.2555 C   0  0  0  0  0  0  0  0  0  0  0  0
    1.7394   -1.3690   -1.4411 O   0  0  0  0  0  0  0  0  0  0  0  0
    0.7724    0.5177   -2.1969 N   0  0  0  0  0  0  0  0  0  0  0  0
    0.2207    1.3195   -1.9221 H   0  0  0  0  0  0  0  0  0  0  0  0
    1.3613    0.5006   -3.5345 C   0  0  0  0  0  0  0  0  0  0  0  0
    1.2875   -0.5032   -3.9583 H   0  0  0  0  0  0  0  0  0  0  0  0
    0.8396    1.2038   -4.1843 H   0  0  0  0  0  0  0  0  0  0  0  0
    2.4159    0.7775   -3.4741 H   0  0  0  0  0  0  0  0  0  0  0  0
  5  6  2  0  0  0  0
  5  7  1  0  0  0  0
  2  3  1  0  0  0  0
  2  4  1  0  0  0  0
  2  5  1  0  0  0  0
  1  2  1  0  0  0  0
 16 17  2  0  0  0  0
 16 18  1  0  0  0  0
 14 15  1  0  0  0  0
 11 12  1  0  0  0  0
 11 13  1  0  0  0  0
 11 14  1  0  0  0  0
  9 10  1  0  0  0  0
  9 11  1  0  0  0  0
  9 16  1  0  0  0  0
  7  8  1  0  0  0  0
  7  9  1  0  0  0  0
 20 21  1  0  0  0  0
 20 22  1  0  0  0  0
 20 23  1  0  0  0  0
 18 19  1  0  0  0  0
 18 20  1  0  0  0  0
M  END
$$$$
default_name
  -OEChem-01062215323D

 23 22  0     1  0  0  0  0  0999 V2000
   -2.6721   -3.7279    0.7212 H   0  0  0  0  0  0  0  0  0  0  0  0
   -2.6561   -2.6819    0.4162 C   0  0  0  0  0  0  0  0  0  0  0  0
   -3.2401   -2.0889    1.1172 H   0  0  0  0  0  0  0  0  0  0  0  0
   -3.0671   -2.5859   -0.5858 H   0  0  0  0  0  0  0  0  0  0  0  0
   -1.2261   -2.1939    0.4202 C   0  0  0  0  0  0  0  0  0  0  0  0
   -0.3181   -2.9519    0.7312 O   0  0  0  0  0  0  0  0  0  0  0  0
   -1.0281   -0.9259    0.0662 N   0  0  0  0  0  0  0  0  0  0  0  0
   -1.8301   -0.3519   -0.1548 H   0  0  0  0  0  0  0  0  0  0  0  0
    0.2709   -0.2409    0.0912 C   0  0  1  0  0  0  0  0  0  0  0  0
    0.1031    0.8237    0.2563 H   0  0  0  0  0  0  0  0  0  0  0  0
    1.1195   -0.7728    1.2534 C   0  0  0  0  0  0  0  0  0  0  0  0
    2.0370   -0.1862    1.3242 H   0  0  0  0  0  0  0  0  0  0  0  0
    0.5636   -0.6713    2.1872 H   0  0  0  0  0  0  0  0  0  0  0  0
    1.4621   -2.1306    1.0485 O   0  0  0  0  0  0  0  0  0  0  0  0
    2.1296   -2.3746    1.6987 H   0  0  0  0  0  0  0  0  0  0  0  0
    0.9947   -0.4058   -1.2555 C   0  0  0  0  0  0  0  0  0  0  0  0
    1.5107   -1.4846   -1.5499 O   0  0  0  0  0  0  0  0  0  0  0  0
    1.0254    0.6490   -2.0771 N   0  0  0  0  0  0  0  0  0  0  0  0
    0.6572    1.5172   -1.7117 H   0  0  0  0  0  0  0  0  0  0  0  0
    1.6508    0.6567   -3.3981 C   0  0  0  0  0  0  0  0  0  0  0  0
    1.3708   -0.2462   -3.9450 H   0  0  0  0  0  0  0  0  0  0  0  0
    1.3282    1.5325   -3.9619 H   0  0  0  0  0  0  0  0  0  0  0  0
    2.7371    0.6762   -3.2890 H   0  0  0  0  0  0  0  0  0  0  0  0
  5  6  2  0  0  0  0
  5  7  1  0  0  0  0
  2  3  1  0  0  0  0
  2  4  1  0  0  0  0
  2  5  1  0  0  0  0
  1  2  1  0  0  0  0
 16 17  2  0  0  0  0
 16 18  1  0  0  0  0
 14 15  1  0  0  0  0
 11 12  1  0  0  0  0
 11 13  1  0  0  0  0
 11 14  1  0  0  0  0
  9 10  1  0  0  0  0
  9 11  1  0  0  0  0
  9 16  1  0  0  0  0
  7  8  1  0  0  0  0
  7  9  1  0  0  0  0
 20 21  1  0  0  0  0
 20 22  1  0  0  0  0
 20 23  1  0  0  0  0
 18 19  1  0  0  0  0
 18 20  1  0  0  0  0
M  END
$$$$
default_name
  -OEChem-01062215323D

 23 22  0     1  0  0  0  0  0999 V2000
   -2.6721   -3.7279    0.7212 H   0  0  0  0  0  0  0  0  0  0  0  0
   -2.6561   -2.6819    0.4162 C   0  0  0  0  0  0  0  0  0  0  0  0
   -3.2401   -2.0889    1.1172 H   0  0  0  0  0  0  0  0  0  0  0  0
   -3.0671   -2.5859   -0.5858 H   0  0  0  0  0  0  0  0  0  0  0  0
   -1.2261   -2.1939    0.4202 C   0  0  0  0  0  0  0  0  0  0  0  0
   -0.3181   -2.9519    0.7312 O   0  0  0  0  0  0  0  0  0  0  0  0
   -1.0281   -0.9259    0.0662 N   0  0  0  0  0  0  0  0  0  0  0  0
   -1.8301   -0.3519   -0.1548 H   0  0  0  0  0  0  0  0  0  0  0  0
    0.2709   -0.2409    0.0912 C   0  0  1  0  0  0  0  0  0  0  0  0
    0.1031    0.8237    0.2563 H   0  0  0  0  0  0  0  0  0  0  0  0
    1.1195   -0.7728    1.2534 C   0  0  0  0  0  0  0  0  0  0  0  0
    2.0370   -0.1862    1.3242 H   0  0  0  0  0  0  0  0  0  0  0  0
    0.5636   -0.6713    2.1872 H   0  0  0  0  0  0  0  0  0  0  0  0
    1.4621   -2.1306    1.0485 O   0  0  0  0  0  0  0  0  0  0  0  0
    2.1296   -2.3746    1.6987 H   0  0  0  0  0  0  0  0  0  0  0  0
    0.9947   -0.4058   -1.2555 C   0  0  0  0  0  0  0  0  0  0  0  0
    1.2667   -1.5312   -1.6753 O   0  0  0  0  0  0  0  0  0  0  0  0
    1.2962    0.7039   -1.9382 N   0  0  0  0  0  0  0  0  0  0  0  0
    1.1178    1.5837   -1.4723 H   0  0  0  0  0  0  0  0  0  0  0  0
    1.9620    0.7252   -3.2392 C   0  0  0  0  0  0  0  0  0  0  0  0
    1.5092   -0.0184   -3.8985 H   0  0  0  0  0  0  0  0  0  0  0  0
    1.8686    1.7120   -3.6935 H   0  0  0  0  0  0  0  0  0  0  0  0
    3.0193    0.4831   -3.1137 H   0  0  0  0  0  0  0  0  0  0  0  0
  5  6  2  0  0  0  0
  5  7  1  0  0  0  0
  2  3  1  0  0  0  0
  2  4  1  0  0  0  0
  2  5  1  0  0  0  0
  1  2  1  0  0  0  0
 16 17  2  0  0  0  0
 16 18  1  0  0  0  0
 14 15  1  0  0  0  0
 11 12  1  0  0  0  0
 11 13  1  0  0  0  0
 11 14  1  0  0  0  0
  9 10  1  0  0  0  0
  9 11  1  0  0  0  0
  9 16  1  0  0  0  0
  7  8  1  0  0  0  0
  7  9  1  0  0  0  0
 20 21  1  0  0  0  0
 20 22  1  0  0  0  0
 20 23  1  0  0  0  0
 18 19  1  0  0  0  0
 18 20  1  0  0  0  0
M  END
$$$$
default_name
  -OEChem-01062215323D

 23 22  0     1  0  0  0  0  0999 V2000
   -2.6721   -3.7279    0.7212 H   0  0  0  0  0  0  0  0  0  0  0  0
   -2.6561   -2.6819    0.4162 C   0  0  0  0  0  0  0  0  0  0  0  0
   -3.2401   -2.0889    1.1172 H   0  0  0  0  0  0  0  0  0  0  0  0
   -3.0671   -2.5859   -0.5858 H   0  0  0  0  0  0  0  0  0  0  0  0
   -1.2261   -2.1939    0.4202 C   0  0  0  0  0  0  0  0  0  0  0  0
   -0.3181   -2.9519    0.7312 O   0  0  0  0  0  0  0  0  0  0  0  0
   -1.0281   -0.9259    0.0662 N   0  0  0  0  0  0  0  0  0  0  0  0
   -1.8301   -0.3519   -0.1548 H   0  0  0  0  0  0  0  0  0  0  0  0
    0.2709   -0.2409    0.0912 C   0  0  1  0  0  0  0  0  0  0  0  0
    0.1031    0.8237    0.2563 H   0  0  0  0  0  0  0  0  0  0  0  0
    1.1195   -0.7728    1.2534 C   0  0  0  0  0  0  0  0  0  0  0  0
    2.0370   -0.1862    1.3242 H   0  0  0  0  0  0  0  0  0  0  0  0
    0.5636   -0.6713    2.1872 H   0  0  0  0  0  0  0  0  0  0  0  0
    1.4621   -2.1306    1.0485 O   0  0  0  0  0  0  0  0  0  0  0  0
    2.1296   -2.3746    1.6987 H   0  0  0  0  0  0  0  0  0  0  0  0
    0.9947   -0.4058   -1.2555 C   0  0  0  0  0  0  0  0  0  0  0  0
    1.0239   -1.5057   -1.8090 O   0  0  0  0  0  0  0  0  0  0  0  0
    1.5664    0.6787   -1.7899 N   0  0  0  0  0  0  0  0  0  0  0  0
    1.5711    1.5143   -1.2201 H   0  0  0  0  0  0  0  0  0  0  0  0
    2.2737    0.7015   -3.0688 C   0  0  0  0  0  0  0  0  0  0  0  0
    1.6932    0.1645   -3.8220 H   0  0  0  0  0  0  0  0  0  0  0  0
    2.4237    1.7303   -3.3974 H   0  0  0  0  0  0  0  0  0  0  0  0
    3.2433    0.2112   -2.9600 H   0  0  0  0  0  0  0  0  0  0  0  0
  5  6  2  0  0  0  0
  5  7  1  0  0  0  0
  2  3  1  0  0  0  0
  2  4  1  0  0  0  0
  2  5  1  0  0  0  0
  1  2  1  0  0  0  0
 16 17  2  0  0  0  0
 16 18  1  0  0  0  0
 14 15  1  0  0  0  0
 11 12  1  0  0  0  0
 11 13  1  0  0  0  0
 11 14  1  0  0  0  0
  9 10  1  0  0  0  0
  9 11  1  0  0  0  0
  9 16  1  0  0  0  0
  7  8  1  0  0  0  0
  7  9  1  0  0  0  0
 20 21  1  0  0  0  0
 20 22  1  0  0  0  0
 20 23  1  0  0  0  0
 18 19  1  0  0  0  0
 18 20  1  0  0  0  0
M  END
$$$$
default_name
  -OEChem-01062215323D

 23 22  0     1  0  0  0  0  0999 V2000
   -2.6721   -3.7279    0.7212 H   0  0  0  0  0  0  0  0  0  0  0  0
   -2.6561   -2.6819    0.4162 C   0  0  0  0  0  0  0  0  0  0  0  0
   -3.2401   -2.0889    1.1172 H   0  0  0  0  0  0  0  0  0  0  0  0
   -3.0671   -2.5859   -0.5858 H   0  0  0  0  0  0  0  0  0  0  0  0
   -1.2261   -2.1939    0.4202 C   0  0  0  0  0  0  0  0  0  0  0  0
   -0.3181   -2.9519    0.7312 O   0  0  0  0  0  0  0  0  0  0  0  0
   -1.0281   -0.9259    0.0662 N   0  0  0  0  0  0  0  0  0  0  0  0
   -1.8301   -0.3519   -0.1548 H   0  0  0  0  0  0  0  0  0  0  0  0
    0.2709   -0.2409    0.0912 C   0  0  1  0  0  0  0  0  0  0  0  0
    0.1031    0.8237    0.2563 H   0  0  0  0  0  0  0  0  0  0  0  0
    1.1195   -0.7728    1.2534 C   0  0  0  0  0  0  0  0  0  0  0  0
    2.0370   -0.1862    1.3242 H   0  0  0  0  0  0  0  0  0  0  0  0
    0.5636   -0.6713    2.1872 H   0  0  0  0  0  0  0  0  0  0  0  0
    1.4621   -2.1306    1.0485 O   0  0  0  0  0  0  0  0  0  0  0  0
    2.1296   -2.3746    1.6987 H   0  0  0  0  0  0  0  0  0  0  0  0
    0.9947   -0.4058   -1.2555 C   0  0  0  0  0  0  0  0  0  0  0  0
    0.7988   -1.4096   -1.9417 O   0  0  0  0  0  0  0  0  0  0  0  0
    1.8175    0.5750   -1.6422 N   0  0  0  0  0  0  0  0  0  0  0  0
    1.9862    1.3137   -0.9725 H   0  0  0  0  0  0  0  0  0  0  0  0
    2.5646    0.5872   -2.8984 C   0  0  0  0  0  0  0  0  0  0  0  0
    1.9103    0.2902   -3.7207 H   0  0  0  0  0  0  0  0  0  0  0  0
    2.9558    1.5861   -3.0937 H   0  0  0  0  0  0  0  0  0  0  0  0
    3.3937   -0.1210   -2.8385 H   0  0  0  0  0  0  0  0  0  0  0  0
  5  6  2  0  0  0  0
  5  7  1  0  0  0  0
  2  3  1  0  0  0  0
  2  4  1  0  0  0  0
  2  5  1  0  0  0  0
  1  2  1  0  0  0  0
 16 17  2  0  0  0  0
 16 18  1  0  0  0  0
 14 15  1  0  0  0  0
 11 12  1  0  0  0  0
 11 13  1  0  0  0  0
 11 14  1  0  0  0  0
  9 10  1  0  0  0  0
  9 11  1  0  0  0  0
  9 16  1  0  0  0  0
  7  8  1  0  0  0  0
  7  9  1  0  0  0  0
 20 21  1  0  0  0  0
 20 22  1  0  0  0  0
 20 23  1  0  0  0  0
 18 19  1  0  0  0  0
 18 20  1  0  0  0  0
M  END
$$$$
default_name
  -OEChem-01062215323D

 23 22  0     1  0  0  0  0  0999 V2000
   -2.6721   -3.7279    0.7212 H   0  0  0  0  0  0  0  0  0  0  0  0
   -2.6561   -2.6819    0.4162 C   0  0  0  0  0  0  0  0  0  0  0  0
   -3.2401   -2.0889    1.1172 H   0  0  0  0  0  0  0  0  0  0  0  0
   -3.0671   -2.5859   -0.5858 H   0  0  0  0  0  0  0  0  0  0  0  0
   -1.2261   -2.1939    0.4202 C   0  0  0  0  0  0  0  0  0  0  0  0
   -0.3181   -2.9519    0.7312 O   0  0  0  0  0  0  0  0  0  0  0  0
   -1.0281   -0.9259    0.0662 N   0  0  0  0  0  0  0  0  0  0  0  0
   -1.8301   -0.3519   -0.1548 H   0  0  0  0  0  0  0  0  0  0  0  0
    0.2709   -0.2409    0.0912 C   0  0  1  0  0  0  0  0  0  0  0  0
    0.1031    0.8237    0.2563 H   0  0  0  0  0  0  0  0  0  0  0  0
    1.1195   -0.7728    1.2534 C   0  0  0  0  0  0  0  0  0  0  0  0
    2.0370   -0.1862    1.3242 H   0  0  0  0  0  0  0  0  0  0  0  0
    0.5636   -0.6713    2.1872 H   0  0  0  0  0  0  0  0  0  0  0  0
    1.4621   -2.1306    1.0485 O   0  0  0  0  0  0  0  0  0  0  0  0
    2.1296   -2.3746    1.6987 H   0  0  0  0  0  0  0  0  0  0  0  0
    0.9947   -0.4058   -1.2555 C   0  0  0  0  0  0  0  0  0  0  0  0
    0.6069   -1.2497   -2.0644 O   0  0  0  0  0  0  0  0  0  0  0  0
    2.0325    0.3999   -1.5053 N   0  0  0  0  0  0  0  0  0  0  0  0
    2.3349    0.9958   -0.7461 H   0  0  0  0  0  0  0  0  0  0  0  0
    2.8150    0.3901   -2.7397 C   0  0  0  0  0  0  0  0  0  0  0  0
    2.1456    0.3501   -3.6016 H   0  0  0  0  0  0  0  0  0  0  0  0
    3.4287    1.2891   -2.8031 H   0  0  0  0  0  0  0  0  0  0  0  0
    3.4603   -0.4907   -2.7574 H   0  0  0  0  0  0  0  0  0  0  0  0
  5  6  2  0  0  0  0
  5  7  1  0  0  0  0
  2  3  1  0  0  0  0
  2  4  1  0  0  0  0
  2  5  1  0  0  0  0
  1  2  1  0  0  0  0
 16 17  2  0  0  0  0
 16 18  1  0  0  0  0
 14 15  1  0  0  0  0
 11 12  1  0  0  0  0
 11 13  1  0  0  0  0
 11 14  1  0  0  0  0
  9 10  1  0  0  0  0
  9 11  1  0  0  0  0
  9 16  1  0  0  0  0
  7  8  1  0  0  0  0
  7  9  1  0  0  0  0
 20 21  1  0  0  0  0
 20 22  1  0  0  0  0
 20 23  1  0  0  0  0
 18 19  1  0  0  0  0
 18 20  1  0  0  0  0
M  END
$$$$
default_name
  -OEChem-01062215323D

 23 22  0     1  0  0  0  0  0999 V2000
   -2.6721   -3.7279    0.7212 H   0  0  0  0  0  0  0  0  0  0  0  0
   -2.6561   -2.6819    0.4162 C   0  0  0  0  0  0  0  0  0  0  0  0
   -3.2401   -2.0889    1.1172 H   0  0  0  0  0  0  0  0  0  0  0  0
   -3.0671   -2.5859   -0.5858 H   0  0  0  0  0  0  0  0  0  0  0  0
   -1.2261   -2.1939    0.4202 C   0  0  0  0  0  0  0  0  0  0  0  0
   -0.3181   -2.9519    0.7312 O   0  0  0  0  0  0  0  0  0  0  0  0
   -1.0281   -0.9259    0.0662 N   0  0  0  0  0  0  0  0  0  0  0  0
   -1.8301   -0.3519   -0.1548 H   0  0  0  0  0  0  0  0  0  0  0  0
    0.2709   -0.2409    0.0912 C   0  0  1  0  0  0  0  0  0  0  0  0
    0.1347    0.7545    0.5148 H   0  0  0  0  0  0  0  0  0  0  0  0
    1.2489   -1.0086    0.9899 C   0  0  0  0  0  0  0  0  0  0  0  0
    2.1738   -0.4370    1.0824 H   0  0  0  0  0  0  0  0  0  0  0  0
    0.8114   -1.1336    1.9820 H   0  0  0  0  0  0  0  0  0  0  0  0
    1.5511   -2.2771    0.4396 O   0  0  0  0  0  0  0  0  0  0  0  0
    2.2901   -2.6509    0.9316 H   0  0  0  0  0  0  0  0  0  0  0  0
    0.8245   -0.0802   -1.3345 C   0  0  0  0  0  0  0  0  0  0  0  0
    0.1781   -0.4953   -2.2971 O   0  0  0  0  0  0  0  0  0  0  0  0
    2.0069    0.5283   -1.4763 N   0  0  0  0  0  0  0  0  0  0  0  0
    2.5055    0.7511   -0.6250 H   0  0  0  0  0  0  0  0  0  0  0  0
    2.6644    0.7805   -2.7570 C   0  0  0  0  0  0  0  0  0  0  0  0
    1.9411    1.1784   -3.4720 H   0  0  0  0  0  0  0  0  0  0  0  0
    3.4749    1.4986   -2.6289 H   0  0  0  0  0  0  0  0  0  0  0  0
    3.0680   -0.1542   -3.1520 H   0  0  0  0  0  0  0  0  0  0  0  0
  5  6  2  0  0  0  0
  5  7  1  0  0  0  0
  2  3  1  0  0  0  0
  2  4  1  0  0  0  0
  2  5  1  0  0  0  0
  1  2  1  0  0  0  0
 16 17  2  0  0  0  0
 16 18  1  0  0  0  0
 14 15  1  0  0  0  0
 11 12  1  0  0  0  0
 11 13  1  0  0  0  0
 11 14  1  0  0  0  0
  9 10  1  0  0  0  0
  9 11  1  0  0  0  0
  9 16  1  0  0  0  0
  7  8  1  0  0  0  0
  7  9  1  0  0  0  0
 20 21  1  0  0  0  0
 20 22  1  0  0  0  0
 20 23  1  0  0  0  0
 18 19  1  0  0  0  0
 18 20  1  0  0  0  0
M  END
$$$$
default_name
  -OEChem-01062215323D

 23 22  0     1  0  0  0  0  0999 V2000
   -2.6721   -3.7279    0.7212 H   0  0  0  0  0  0  0  0  0  0  0  0
   -2.6561   -2.6819    0.4162 C   0  0  0  0  0  0  0  0  0  0  0  0
   -3.2401   -2.0889    1.1172 H   0  0  0  0  0  0  0  0  0  0  0  0
   -3.0671   -2.5859   -0.5858 H   0  0  0  0  0  0  0  0  0  0  0  0
   -1.2261   -2.1939    0.4202 C   0  0  0  0  0  0  0  0  0  0  0  0
   -0.3181   -2.9519    0.7312 O   0  0  0  0  0  0  0  0  0  0  0  0
   -1.0281   -0.9259    0.0662 N   0  0  0  0  0  0  0  0  0  0  0  0
   -1.8301   -0.3519   -0.1548 H   0  0  0  0  0  0  0  0  0  0  0  0
    0.2709   -0.2409    0.0912 C   0  0  1  0  0  0  0  0  0  0  0  0
    0.1347    0.7545    0.5148 H   0  0  0  0  0  0  0  0  0  0  0  0
    1.2489   -1.0086    0.9899 C   0  0  0  0  0  0  0  0  0  0  0  0
    2.1738   -0.4370    1.0824 H   0  0  0  0  0  0  0  0  0  0  0  0
    0.8114   -1.1336    1.9820 H   0  0  0  0  0  0  0  0  0  0  0  0
    1.5511   -2.2771    0.4396 O   0  0  0  0  0  0  0  0  0  0  0  0
    2.2901   -2.6509    0.9316 H   0  0  0  0  0  0  0  0  0  0  0  0
    0.8245   -0.0802   -1.3345 C   0  0  0  0  0  0  0  0  0  0  0  0
    0.0821   -0.2342   -2.3050 O   0  0  0  0  0  0  0  0  0  0  0  0
    2.1164    0.2393   -1.4663 N   0  0  0  0  0  0  0  0  0  0  0  0
    2.6673    0.2534   -0.6183 H   0  0  0  0  0  0  0  0  0  0  0  0
    2.7952    0.4496   -2.7436 C   0  0  0  0  0  0  0  0  0  0  0  0
    2.1781    1.0757   -3.3915 H   0  0  0  0  0  0  0  0  0  0  0  0
    3.7568    0.9377   -2.5826 H   0  0  0  0  0  0  0  0  0  0  0  0
    2.9551   -0.5118   -3.2361 H   0  0  0  0  0  0  0  0  0  0  0  0
  5  6  2  0  0  0  0
  5  7  1  0  0  0  0
  2  3  1  0  0  0  0
  2  4  1  0  0  0  0
  2  5  1  0  0  0  0
  1  2  1  0  0  0  0
 16 17  2  0  0  0  0
 16 18  1  0  0  0  0
 14 15  1  0  0  0  0
 11 12  1  0  0  0  0
 11 13  1  0  0  0  0
 11 14  1  0  0  0  0
  9 10  1  0  0  0  0
  9 11  1  0  0  0  0
  9 16  1  0  0  0  0
  7  8  1  0  0  0  0
  7  9  1  0  0  0  0
 20 21  1  0  0  0  0
 20 22  1  0  0  0  0
 20 23  1  0  0  0  0
 18 19  1  0  0  0  0
 18 20  1  0  0  0  0
M  END
$$$$
default_name
  -OEChem-01062215323D

 23 22  0     1  0  0  0  0  0999 V2000
   -2.6721   -3.7279    0.7212 H   0  0  0  0  0  0  0  0  0  0  0  0
   -2.6561   -2.6819    0.4162 C   0  0  0  0  0  0  0  0  0  0  0  0
   -3.2401   -2.0889    1.1172 H   0  0  0  0  0  0  0  0  0  0  0  0
   -3.0671   -2.5859   -0.5858 H   0  0  0  0  0  0  0  0  0  0  0  0
   -1.2261   -2.1939    0.4202 C   0  0  0  0  0  0  0  0  0  0  0  0
   -0.3181   -2.9519    0.7312 O   0  0  0  0  0  0  0  0  0  0  0  0
   -1.0281   -0.9259    0.0662 N   0  0  0  0  0  0  0  0  0  0  0  0
   -1.8301   -0.3519   -0.1548 H   0  0  0  0  0  0  0  0  0  0  0  0
    0.2709   -0.2409    0.0912 C   0  0  1  0  0  0  0  0  0  0  0  0
    0.1347    0.7545    0.5148 H   0  0  0  0  0  0  0  0  0  0  0  0
    1.2489   -1.0086    0.9899 C   0  0  0  0  0  0  0  0  0  0  0  0
    2.1738   -0.4370    1.0824 H   0  0  0  0  0  0  0  0  0  0  0  0
    0.8114   -1.1336    1.9820 H   0  0  0  0  0  0  0  0  0  0  0  0
    1.5511   -2.2771    0.4396 O   0  0  0  0  0  0  0  0  0  0  0  0
    2.2901   -2.6509    0.9316 H   0  0  0  0  0  0  0  0  0  0  0  0
    0.8245   -0.0802   -1.3345 C   0  0  0  0  0  0  0  0  0  0  0  0
    0.0517    0.0418   -2.2856 O   0  0  0  0  0  0  0  0  0  0  0  0
    2.1531   -0.0671   -1.4866 N   0  0  0  0  0  0  0  0  0  0  0  0
    2.7044   -0.2667   -0.6625 H   0  0  0  0  0  0  0  0  0  0  0  0
    2.8424    0.0974   -2.7649 C   0  0  0  0  0  0  0  0  0  0  0  0
    2.3846    0.9122   -3.3298 H   0  0  0  0  0  0  0  0  0  0  0  0
    3.8958    0.3240   -2.5978 H   0  0  0  0  0  0  0  0  0  0  0  0
    2.7580   -0.8223   -3.3476 H   0  0  0  0  0  0  0  0  0  0  0  0
  5  6  2  0  0  0  0
  5  7  1  0  0  0  0
  2  3  1  0  0  0  0
  2  4  1  0  0  0  0
  2  5  1  0  0  0  0
  1  2  1  0  0  0  0
 16 17  2  0  0  0  0
 16 18  1  0  0  0  0
 14 15  1  0  0  0  0
 11 12  1  0  0  0  0
 11 13  1  0  0  0  0
 11 14  1  0  0  0  0
  9 10  1  0  0  0  0
  9 11  1  0  0  0  0
  9 16  1  0  0  0  0
  7  8  1  0  0  0  0
  7  9  1  0  0  0  0
 20 21  1  0  0  0  0
 20 22  1  0  0  0  0
 20 23  1  0  0  0  0
 18 19  1  0  0  0  0
 18 20  1  0  0  0  0
M  END
$$$$
default_name
  -OEChem-01062215323D

 23 22  0     1  0  0  0  0  0999 V2000
   -2.6721   -3.7279    0.7212 H   0  0  0  0  0  0  0  0  0  0  0  0
   -2.6561   -2.6819    0.4162 C   0  0  0  0  0  0  0  0  0  0  0  0
   -3.2401   -2.0889    1.1172 H   0  0  0  0  0  0  0  0  0  0  0  0
   -3.0671   -2.5859   -0.5858 H   0  0  0  0  0  0  0  0  0  0  0  0
   -1.2261   -2.1939    0.4202 C   0  0  0  0  0  0  0  0  0  0  0  0
   -0.3181   -2.9519    0.7312 O   0  0  0  0  0  0  0  0  0  0  0  0
   -1.0281   -0.9259    0.0662 N   0  0  0  0  0  0  0  0  0  0  0  0
   -1.8301   -0.3519   -0.1548 H   0  0  0  0  0  0  0  0  0  0  0  0
    0.2709   -0.2409    0.0912 C   0  0  1  0  0  0  0  0  0  0  0  0
    0.1347    0.7545    0.5148 H   0  0  0  0  0  0  0  0  0  0  0  0
    1.2489   -1.0086    0.9899 C   0  0  0  0  0  0  0  0  0  0  0  0
    2.1738   -0.4370    1.0824 H   0  0  0  0  0  0  0  0  0  0  0  0
    0.8114   -1.1336    1.9820 H   0  0  0  0  0  0  0  0  0  0  0  0
    1.5511   -2.2771    0.4396 O   0  0  0  0  0  0  0  0  0  0  0  0
    2.2901   -2.6509    0.9316 H   0  0  0  0  0  0  0  0  0  0  0  0
    0.8245   -0.0802   -1.3345 C   0  0  0  0  0  0  0  0  0  0  0  0
    0.0892    0.3139   -2.2404 O   0  0  0  0  0  0  0  0  0  0  0  0
    2.1145   -0.3699   -1.5358 N   0  0  0  0  0  0  0  0  0  0  0  0
    2.6141   -0.7739   -0.7547 H   0  0  0  0  0  0  0  0  0  0  0  0
    2.8030   -0.2522   -2.8196 C   0  0  0  0  0  0  0  0  0  0  0  0
    2.5464    0.6989   -3.2910 H   0  0  0  0  0  0  0  0  0  0  0  0
    3.8824   -0.3008   -2.6735 H   0  0  0  0  0  0  0  0  0  0  0  0
    2.4900   -1.0645   -3.4790 H   0  0  0  0  0  0  0  0  0  0  0  0
  5  6  2  0  0  0  0
  5  7  1  0  0  0  0
  2  3  1  0  0  0  0
  2  4  1  0  0  0  0
  2  5  1  0  0  0  0
  1  2  1  0  0  0  0
 16 17  2  0  0  0  0
 16 18  1  0  0  0  0
 14 15  1  0  0  0  0
 11 12  1  0  0  0  0
 11 13  1  0  0  0  0
 11 14  1  0  0  0  0
  9 10  1  0  0  0  0
  9 11  1  0  0  0  0
  9 16  1  0  0  0  0
  7  8  1  0  0  0  0
  7  9  1  0  0  0  0
 20 21  1  0  0  0  0
 20 22  1  0  0  0  0
 20 23  1  0  0  0  0
 18 19  1  0  0  0  0
 18 20  1  0  0  0  0
M  END
$$$$
default_name
  -OEChem-01062215323D

 23 22  0     1  0  0  0  0  0999 V2000
   -2.6721   -3.7279    0.7212 H   0  0  0  0  0  0  0  0  0  0  0  0
   -2.6561   -2.6819    0.4162 C   0  0  0  0  0  0  0  0  0  0  0  0
   -3.2401   -2.0889    1.1172 H   0  0  0  0  0  0  0  0  0  0  0  0
   -3.0671   -2.5859   -0.5858 H   0  0  0  0  0  0  0  0  0  0  0  0
   -1.2261   -2.1939    0.4202 C   0  0  0  0  0  0  0  0  0  0  0  0
   -0.3181   -2.9519    0.7312 O   0  0  0  0  0  0  0  0  0  0  0  0
   -1.0281   -0.9259    0.0662 N   0  0  0  0  0  0  0  0  0  0  0  0
   -1.8301   -0.3519   -0.1548 H   0  0  0  0  0  0  0  0  0  0  0  0
    0.2709   -0.2409    0.0912 C   0  0  1  0  0  0  0  0  0  0  0  0
    0.1347    0.7545    0.5148 H   0  0  0  0  0  0  0  0  0  0  0  0
    1.2489   -1.0086    0.9899 C   0  0  0  0  0  0  0  0  0  0  0  0
    2.1738   -0.4370    1.0824 H   0  0  0  0  0  0  0  0  0  0  0  0
    0.8114   -1.1336    1.9820 H   0  0  0  0  0  0  0  0  0  0  0  0
    1.5511   -2.2771    0.4396 O   0  0  0  0  0  0  0  0  0  0  0  0
    2.2901   -2.6509    0.9316 H   0  0  0  0  0  0  0  0  0  0  0  0
    0.8245   -0.0802   -1.3345 C   0  0  0  0  0  0  0  0  0  0  0  0
    0.1918    0.5635   -2.1724 O   0  0  0  0  0  0  0  0  0  0  0  0
    2.0032   -0.6486   -1.6104 N   0  0  0  0  0  0  0  0  0  0  0  0
    2.4028   -1.2336   -0.8886 H   0  0  0  0  0  0  0  0  0  0  0  0
    2.6795   -0.5753   -2.9040 C   0  0  0  0  0  0  0  0  0  0  0  0
    2.6526    0.4504   -3.2778 H   0  0  0  0  0  0  0  0  0  0  0  0
    3.7175   -0.8940   -2.8044 H   0  0  0  0  0  0  0  0  0  0  0  0
    2.1696   -1.2219   -3.6212 H   0  0  0  0  0  0  0  0  0  0  0  0
  5  6  2  0  0  0  0
  5  7  1  0  0  0  0
  2  3  1  0  0  0  0
  2  4  1  0  0  0  0
  2  5  1  0  0  0  0
  1  2  1  0  0  0  0
 16 17  2  0  0  0  0
 16 18  1  0  0  0  0
 14 15  1  0  0  0  0
 11 12  1  0  0  0  0
 11 13  1  0  0  0  0
 11 14  1  0  0  0  0
  9 10  1  0  0  0  0
  9 11  1  0  0  0  0
  9 16  1  0  0  0  0
  7  8  1  0  0  0  0
  7  9  1  0  0  0  0
 20 21  1  0  0  0  0
 20 22  1  0  0  0  0
 20 23  1  0  0  0  0
 18 19  1  0  0  0  0
 18 20  1  0  0  0  0
M  END
$$$$
default_name
  -OEChem-01062215323D

 23 22  0     1  0  0  0  0  0999 V2000
   -2.6721   -3.7279    0.7212 H   0  0  0  0  0  0  0  0  0  0  0  0
   -2.6561   -2.6819    0.4162 C   0  0  0  0  0  0  0  0  0  0  0  0
   -3.2401   -2.0889    1.1172 H   0  0  0  0  0  0  0  0  0  0  0  0
   -3.0671   -2.5859   -0.5858 H   0  0  0  0  0  0  0  0  0  0  0  0
   -1.2261   -2.1939    0.4202 C   0  0  0  0  0  0  0  0  0  0  0  0
   -0.3181   -2.9519    0.7312 O   0  0  0  0  0  0  0  0  0  0  0  0
   -1.0281   -0.9259    0.0662 N   0  0  0  0  0  0  0  0  0  0  0  0
   -1.8301   -0.3519   -0.1548 H   0  0  0  0  0  0  0  0  0  0  0  0
    0.2709   -0.2409    0.0912 C   0  0  1  0  0  0  0  0  0  0  0  0
    0.1347    0.7545    0.5148 H   0  0  0  0  0  0  0  0  0  0  0  0
    1.2489   -1.0086    0.9899 C   0  0  0  0  0  0  0  0  0  0  0  0
    2.1738   -0.4370    1.0824 H   0  0  0  0  0  0  0  0  0  0  0  0
    0.8114   -1.1336    1.9820 H   0  0  0  0  0  0  0  0  0  0  0  0
    1.5511   -2.2771    0.4396 O   0  0  0  0  0  0  0  0  0  0  0  0
    2.2901   -2.6509    0.9316 H   0  0  0  0  0  0  0  0  0  0  0  0
    0.8245   -0.0802   -1.3345 C   0  0  0  0  0  0  0  0  0  0  0  0
    0.3527    0.7736   -2.0863 O   0  0  0  0  0  0  0  0  0  0  0  0
    1.8267   -0.8842   -1.7055 N   0  0  0  0  0  0  0  0  0  0  0  0
    2.0847   -1.6144   -1.0551 H   0  0  0  0  0  0  0  0  0  0  0  0
    2.4804   -0.8500   -3.0123 C   0  0  0  0  0  0  0  0  0  0  0  0
    2.6959    0.1837   -3.2910 H   0  0  0  0  0  0  0  0  0  0  0  0
    3.4124   -1.4152   -2.9816 H   0  0  0  0  0  0  0  0  0  0  0  0
    1.8184   -1.2839   -3.7645 H   0  0  0  0  0  0  0  0  0  0  0  0
  5  6  2  0  0  0  0
  5  7  1  0  0  0  0
  2  3  1  0  0  0  0
  2  4  1  0  0  0  0
  2  5  1  0  0  0  0
  1  2  1  0  0  0  0
 16 17  2  0  0  0  0
 16 18  1  0  0  0  0
 14 15  1  0  0  0  0
 11 12  1  0  0  0  0
 11 13  1  0  0  0  0
 11 14  1  0  0  0  0
  9 10  1  0  0  0  0
  9 11  1  0  0  0  0
  9 16  1  0  0  0  0
  7  8  1  0  0  0  0
  7  9  1  0  0  0  0
 20 21  1  0  0  0  0
 20 22  1  0  0  0  0
 20 23  1  0  0  0  0
 18 19  1  0  0  0  0
 18 20  1  0  0  0  0
M  END
$$$$
default_name
  -OEChem-01062215323D

 23 22  0     1  0  0  0  0  0999 V2000
   -2.6721   -3.7279    0.7212 H   0  0  0  0  0  0  0  0  0  0  0  0
   -2.6561   -2.6819    0.4162 C   0  0  0  0  0  0  0  0  0  0  0  0
   -3.2401   -2.0889    1.1172 H   0  0  0  0  0  0  0  0  0  0  0  0
   -3.0671   -2.5859   -0.5858 H   0  0  0  0  0  0  0  0  0  0  0  0
   -1.2261   -2.1939    0.4202 C   0  0  0  0  0  0  0  0  0  0  0  0
   -0.3181   -2.9519    0.7312 O   0  0  0  0  0  0  0  0  0  0  0  0
   -1.0281   -0.9259    0.0662 N   0  0  0  0  0  0  0  0  0  0  0  0
   -1.8301   -0.3519   -0.1548 H   0  0  0  0  0  0  0  0  0  0  0  0
    0.2709   -0.2409    0.0912 C   0  0  1  0  0  0  0  0  0  0  0  0
    0.1347    0.7545    0.5148 H   0  0  0  0  0  0  0  0  0  0  0  0
    1.2489   -1.0086    0.9899 C   0  0  0  0  0  0  0  0  0  0  0  0
    2.1738   -0.4370    1.0824 H   0  0  0  0  0  0  0  0  0  0  0  0
    0.8114   -1.1336    1.9820 H   0  0  0  0  0  0  0  0  0  0  0  0
    1.5511   -2.2771    0.4396 O   0  0  0  0  0  0  0  0  0  0  0  0
    2.2901   -2.6509    0.9316 H   0  0  0  0  0  0  0  0  0  0  0  0
    0.8245   -0.0802   -1.3345 C   0  0  0  0  0  0  0  0  0  0  0  0
    0.5609    0.9300   -1.9878 O   0  0  0  0  0  0  0  0  0  0  0  0
    1.5973   -1.0605   -1.8144 N   0  0  0  0  0  0  0  0  0  0  0  0
    1.6816   -1.8904   -1.2427 H   0  0  0  0  0  0  0  0  0  0  0  0
    2.2193   -1.0574   -3.1370 C   0  0  0  0  0  0  0  0  0  0  0  0
    2.6734   -0.0830   -3.3298 H   0  0  0  0  0  0  0  0  0  0  0  0
    2.9877   -1.8289   -3.1931 H   0  0  0  0  0  0  0  0  0  0  0  0
    1.4605   -1.2461   -3.8992 H   0  0  0  0  0  0  0  0  0  0  0  0
  5  6  2  0  0  0  0
  5  7  1  0  0  0  0
  2  3  1  0  0  0  0
  2  4  1  0  0  0  0
  2  5  1  0  0  0  0
  1  2  1  0  0  0  0
 16 17  2  0  0  0  0
 16 18  1  0  0  0  0
 14 15  1  0  0  0  0
 11 12  1  0  0  0  0
 11 13  1  0  0  0  0
 11 14  1  0  0  0  0
  9 10  1  0  0  0  0
  9 11  1  0  0  0  0
  9 16  1  0  0  0  0
  7  8  1  0  0  0  0
  7  9  1  0  0  0  0
 20 21  1  0  0  0  0
 20 22  1  0  0  0  0
 20 23  1  0  0  0  0
 18 19  1  0  0  0  0
 18 20  1  0  0  0  0
M  END
$$$$
default_name
  -OEChem-01062215323D

 23 22  0     1  0  0  0  0  0999 V2000
   -2.6721   -3.7279    0.7212 H   0  0  0  0  0  0  0  0  0  0  0  0
   -2.6561   -2.6819    0.4162 C   0  0  0  0  0  0  0  0  0  0  0  0
   -3.2401   -2.0889    1.1172 H   0  0  0  0  0  0  0  0  0  0  0  0
   -3.0671   -2.5859   -0.5858 H   0  0  0  0  0  0  0  0  0  0  0  0
   -1.2261   -2.1939    0.4202 C   0  0  0  0  0  0  0  0  0  0  0  0
   -0.3181   -2.9519    0.7312 O   0  0  0  0  0  0  0  0  0  0  0  0
   -1.0281   -0.9259    0.0662 N   0  0  0  0  0  0  0  0  0  0  0  0
   -1.8301   -0.3519   -0.1548 H   0  0  0  0  0  0  0  0  0  0  0  0
    0.2709   -0.2409    0.0912 C   0  0  1  0  0  0  0  0  0  0  0  0
    0.1347    0.7545    0.5148 H   0  0  0  0  0  0  0  0  0  0  0  0
    1.2489   -1.0086    0.9899 C   0  0  0  0  0  0  0  0  0  0  0  0
    2.1738   -0.4370    1.0824 H   0  0  0  0  0  0  0  0  0  0  0  0
    0.8114   -1.1336    1.9820 H   0  0  0  0  0  0  0  0  0  0  0  0
    1.5511   -2.2771    0.4396 O   0  0  0  0  0  0  0  0  0  0  0  0
    2.2901   -2.6509    0.9316 H   0  0  0  0  0  0  0  0  0  0  0  0
    0.8245   -0.0802   -1.3345 C   0  0  0  0  0  0  0  0  0  0  0  0
    0.8022    1.0219   -1.8838 O   0  0  0  0  0  0  0  0  0  0  0  0
    1.3303   -1.1656   -1.9299 N   0  0  0  0  0  0  0  0  0  0  0  0
    1.2210   -2.0429   -1.4388 H   0  0  0  0  0  0  0  0  0  0  0  0
    1.9140   -1.1834   -3.2698 C   0  0  0  0  0  0  0  0  0  0  0  0
    2.5866   -0.3317   -3.3916 H   0  0  0  0  0  0  0  0  0  0  0  0
    2.4726   -2.1070   -3.4245 H   0  0  0  0  0  0  0  0  0  0  0  0
    1.1202   -1.1111   -4.0162 H   0  0  0  0  0  0  0  0  0  0  0  0
  5  6  2  0  0  0  0
  5  7  1  0  0  0  0
  2  3  1  0  0  0  0
  2  4  1  0  0  0  0
  2  5  1  0  0  0  0
  1  2  1  0  0  0  0
 16 17  2  0  0  0  0
 16 18  1  0  0  0  0
 14 15  1  0  0  0  0
 11 12  1  0  0  0  0
 11 13  1  0  0  0  0
 11 14  1  0  0  0  0
  9 10  1  0  0  0  0
  9 11  1  0  0  0  0
  9 16  1  0  0  0  0
  7  8  1  0  0  0  0
  7  9  1  0  0  0  0
 20 21  1  0  0  0  0
 20 22  1  0  0  0  0
 20 23  1  0  0  0  0
 18 19  1  0  0  0  0
 18 20  1  0  0  0  0
M  END
$$$$
default_name
  -OEChem-01062215323D

 23 22  0     1  0  0  0  0  0999 V2000
   -2.6721   -3.7279    0.7212 H   0  0  0  0  0  0  0  0  0  0  0  0
   -2.6561   -2.6819    0.4162 C   0  0  0  0  0  0  0  0  0  0  0  0
   -3.2401   -2.0889    1.1172 H   0  0  0  0  0  0  0  0  0  0  0  0
   -3.0671   -2.5859   -0.5858 H   0  0  0  0  0  0  0  0  0  0  0  0
   -1.2261   -2.1939    0.4202 C   0  0  0  0  0  0  0  0  0  0  0  0
   -0.3181   -2.9519    0.7312 O   0  0  0  0  0  0  0  0  0  0  0  0
   -1.0281   -0.9259    0.0662 N   0  0  0  0  0  0  0  0  0  0  0  0
   -1.8301   -0.3519   -0.1548 H   0  0  0  0  0  0  0  0  0  0  0  0
    0.2709   -0.2409    0.0912 C   0  0  1  0  0  0  0  0  0  0  0  0
    0.1347    0.7545    0.5148 H   0  0  0  0  0  0  0  0  0  0  0  0
    1.2489   -1.0086    0.9899 C   0  0  0  0  0  0  0  0  0  0  0  0
    2.1738   -0.4370    1.0824 H   0  0  0  0  0  0  0  0  0  0  0  0
    0.8114   -1.1336    1.9820 H   0  0  0  0  0  0  0  0  0  0  0  0
    1.5511   -2.2771    0.4396 O   0  0  0  0  0  0  0  0  0  0  0  0
    2.2901   -2.6509    0.9316 H   0  0  0  0  0  0  0  0  0  0  0  0
    0.8245   -0.0802   -1.3345 C   0  0  0  0  0  0  0  0  0  0  0  0
    1.0601    1.0431   -1.7812 O   0  0  0  0  0  0  0  0  0  0  0  0
    1.0442   -1.1923   -2.0441 N   0  0  0  0  0  0  0  0  0  0  0  0
    0.7341   -2.0613   -1.6299 H   0  0  0  0  0  0  0  0  0  0  0  0
    1.5852   -1.2195   -3.4016 C   0  0  0  0  0  0  0  0  0  0  0  0
    2.4414   -0.5453   -3.4720 H   0  0  0  0  0  0  0  0  0  0  0  0
    1.9020   -2.2304   -3.6600 H   0  0  0  0  0  0  0  0  0  0  0  0
    0.8207   -0.8882   -4.1074 H   0  0  0  0  0  0  0  0  0  0  0  0
  5  6  2  0  0  0  0
  5  7  1  0  0  0  0
  2  3  1  0  0  0  0
  2  4  1  0  0  0  0
  2  5  1  0  0  0  0
  1  2  1  0  0  0  0
 16 17  2  0  0  0  0
 16 18  1  0  0  0  0
 14 15  1  0  0  0  0
 11 12  1  0  0  0  0
 11 13  1  0  0  0  0
 11 14  1  0  0  0  0
  9 10  1  0  0  0  0
  9 11  1  0  0  0  0
  9 16  1  0  0  0  0
  7  8  1  0  0  0  0
  7  9  1  0  0  0  0
 20 21  1  0  0  0  0
 20 22  1  0  0  0  0
 20 23  1  0  0  0  0
 18 19  1  0  0  0  0
 18 20  1  0  0  0  0
M  END
$$$$
default_name
  -OEChem-01062215323D

 23 22  0     1  0  0  0  0  0999 V2000
   -2.6721   -3.7279    0.7212 H   0  0  0  0  0  0  0  0  0  0  0  0
   -2.6561   -2.6819    0.4162 C   0  0  0  0  0  0  0  0  0  0  0  0
   -3.2401   -2.0889    1.1172 H   0  0  0  0  0  0  0  0  0  0  0  0
   -3.0671   -2.5859   -0.5858 H   0  0  0  0  0  0  0  0  0  0  0  0
   -1.2261   -2.1939    0.4202 C   0  0  0  0  0  0  0  0  0  0  0  0
   -0.3181   -2.9519    0.7312 O   0  0  0  0  0  0  0  0  0  0  0  0
   -1.0281   -0.9259    0.0662 N   0  0  0  0  0  0  0  0  0  0  0  0
   -1.8301   -0.3519   -0.1548 H   0  0  0  0  0  0  0  0  0  0  0  0
    0.2709   -0.2409    0.0912 C   0  0  1  0  0  0  0  0  0  0  0  0
    0.1347    0.7545    0.5148 H   0  0  0  0  0  0  0  0  0  0  0  0
    1.2489   -1.0086    0.9899 C   0  0  0  0  0  0  0  0  0  0  0  0
    2.1738   -0.4370    1.0824 H   0  0  0  0  0  0  0  0  0  0  0  0
    0.8114   -1.1336    1.9820 H   0  0  0  0  0  0  0  0  0  0  0  0
    1.5511   -2.2771    0.4396 O   0  0  0  0  0  0  0  0  0  0  0  0
    2.2901   -2.6509    0.9316 H   0  0  0  0  0  0  0  0  0  0  0  0
    0.8245   -0.0802   -1.3345 C   0  0  0  0  0  0  0  0  0  0  0  0
    1.3170    0.9921   -1.6872 O   0  0  0  0  0  0  0  0  0  0  0  0
    0.7583   -1.1388   -2.1491 N   0  0  0  0  0  0  0  0  0  0  0  0
    0.2543   -1.9444   -1.8031 H   0  0  0  0  0  0  0  0  0  0  0  0
    1.2554   -1.1633   -3.5233 C   0  0  0  0  0  0  0  0  0  0  0  0
    2.2477   -0.7093   -3.5657 H   0  0  0  0  0  0  0  0  0  0  0  0
    1.3149   -2.1907   -3.8835 H   0  0  0  0  0  0  0  0  0  0  0  0
    0.5824   -0.5926   -4.1666 H   0  0  0  0  0  0  0  0  0  0  0  0
  5  6  2  0  0  0  0
  5  7  1  0  0  0  0
  2  3  1  0  0  0  0
  2  4  1  0  0  0  0
  2  5  1  0  0  0  0
  1  2  1  0  0  0  0
 16 17  2  0  0  0  0
 16 18  1  0  0  0  0
 14 15  1  0  0  0  0
 11 12  1  0  0  0  0
 11 13  1  0  0  0  0
 11 14  1  0  0  0  0
  9 10  1  0  0  0  0
  9 11  1  0  0  0  0
  9 16  1  0  0  0  0
  7  8  1  0  0  0  0
  7  9  1  0  0  0  0
 20 21  1  0  0  0  0
 20 22  1  0  0  0  0
 20 23  1  0  0  0  0
 18 19  1  0  0  0  0
 18 20  1  0  0  0  0
M  END
$$$$
default_name
  -OEChem-01062215323D

 23 22  0     1  0  0  0  0  0999 V2000
   -2.6721   -3.7279    0.7212 H   0  0  0  0  0  0  0  0  0  0  0  0
   -2.6561   -2.6819    0.4162 C   0  0  0  0  0  0  0  0  0  0  0  0
   -3.2401   -2.0889    1.1172 H   0  0  0  0  0  0  0  0  0  0  0  0
   -3.0671   -2.5859   -0.5858 H   0  0  0  0  0  0  0  0  0  0  0  0
   -1.2261   -2.1939    0.4202 C   0  0  0  0  0  0  0  0  0  0  0  0
   -0.3181   -2.9519    0.7312 O   0  0  0  0  0  0  0  0  0  0  0  0
   -1.0281   -0.9259    0.0662 N   0  0  0  0  0  0  0  0  0  0  0  0
   -1.8301   -0.3519   -0.1548 H   0  0  0  0  0  0  0  0  0  0  0  0
    0.2709   -0.2409    0.0912 C   0  0  1  0  0  0  0  0  0  0  0  0
    0.1347    0.7545    0.5148 H   0  0  0  0  0  0  0  0  0  0  0  0
    1.2489   -1.0086    0.9899 C   0  0  0  0  0  0  0  0  0  0  0  0
    2.1738   -0.4370    1.0824 H   0  0  0  0  0  0  0  0  0  0  0  0
    0.8114   -1.1336    1.9820 H   0  0  0  0  0  0  0  0  0  0  0  0
    1.5511   -2.2771    0.4396 O   0  0  0  0  0  0  0  0  0  0  0  0
    2.2901   -2.6509    0.9316 H   0  0  0  0  0  0  0  0  0  0  0  0
    0.8245   -0.0802   -1.3345 C   0  0  0  0  0  0  0  0  0  0  0  0
    1.5555    0.8724   -1.6080 O   0  0  0  0  0  0  0  0  0  0  0  0
    0.4921   -1.0087   -2.2378 N   0  0  0  0  0  0  0  0  0  0  0  0
   -0.1859   -1.7003   -1.9465 H   0  0  0  0  0  0  0  0  0  0  0  0
    0.9470   -1.0184   -3.6267 C   0  0  0  0  0  0  0  0  0  0  0  0
    2.0188   -0.8125   -3.6663 H   0  0  0  0  0  0  0  0  0  0  0  0
    0.7513   -1.9907   -4.0798 H   0  0  0  0  0  0  0  0  0  0  0  0
    0.4216   -0.2443   -4.1898 H   0  0  0  0  0  0  0  0  0  0  0  0
  5  6  2  0  0  0  0
  5  7  1  0  0  0  0
  2  3  1  0  0  0  0
  2  4  1  0  0  0  0
  2  5  1  0  0  0  0
  1  2  1  0  0  0  0
 16 17  2  0  0  0  0
 16 18  1  0  0  0  0
 14 15  1  0  0  0  0
 11 12  1  0  0  0  0
 11 13  1  0  0  0  0
 11 14  1  0  0  0  0
  9 10  1  0  0  0  0
  9 11  1  0  0  0  0
  9 16  1  0  0  0  0
  7  8  1  0  0  0  0
  7  9  1  0  0  0  0
 20 21  1  0  0  0  0
 20 22  1  0  0  0  0
 20 23  1  0  0  0  0
 18 19  1  0  0  0  0
 18 20  1  0  0  0  0
M  END
$$$$
default_name
  -OEChem-01062215323D

 23 22  0     1  0  0  0  0  0999 V2000
   -2.6721   -3.7279    0.7212 H   0  0  0  0  0  0  0  0  0  0  0  0
   -2.6561   -2.6819    0.4162 C   0  0  0  0  0  0  0  0  0  0  0  0
   -3.2401   -2.0889    1.1172 H   0  0  0  0  0  0  0  0  0  0  0  0
   -3.0671   -2.5859   -0.5858 H   0  0  0  0  0  0  0  0  0  0  0  0
   -1.2261   -2.1939    0.4202 C   0  0  0  0  0  0  0  0  0  0  0  0
   -0.3181   -2.9519    0.7312 O   0  0  0  0  0  0  0  0  0  0  0  0
   -1.0281   -0.9259    0.0662 N   0  0  0  0  0  0  0  0  0  0  0  0
   -1.8301   -0.3519   -0.1548 H   0  0  0  0  0  0  0  0  0  0  0  0
    0.2709   -0.2409    0.0912 C   0  0  1  0  0  0  0  0  0  0  0  0
    0.1347    0.7545    0.5148 H   0  0  0  0  0  0  0  0  0  0  0  0
    1.2489   -1.0086    0.9899 C   0  0  0  0  0  0  0  0  0  0  0  0
    2.1738   -0.4370    1.0824 H   0  0  0  0  0  0  0  0  0  0  0  0
    0.8114   -1.1336    1.9820 H   0  0  0  0  0  0  0  0  0  0  0  0
    1.5511   -2.2771    0.4396 O   0  0  0  0  0  0  0  0  0  0  0  0
    2.2901   -2.6509    0.9316 H   0  0  0  0  0  0  0  0  0  0  0  0
    0.8245   -0.0802   -1.3345 C   0  0  0  0  0  0  0  0  0  0  0  0
    1.7594    0.6922   -1.5492 O   0  0  0  0  0  0  0  0  0  0  0  0
    0.2638   -0.8109   -2.3041 N   0  0  0  0  0  0  0  0  0  0  0  0
   -0.5563   -1.3455   -2.0503 H   0  0  0  0  0  0  0  0  0  0  0  0
    0.6811   -0.7949   -3.7048 C   0  0  0  0  0  0  0  0  0  0  0  0
    1.7702   -0.8479   -3.7668 H   0  0  0  0  0  0  0  0  0  0  0  0
    0.2496   -1.6440   -4.2356 H   0  0  0  0  0  0  0  0  0  0  0  0
    0.3492    0.1329   -4.1754 H   0  0  0  0  0  0  0  0  0  0  0  0
  5  6  2  0  0  0  0
  5  7  1  0  0  0  0
  2  3  1  0  0  0  0
  2  4  1  0  0  0  0
  2  5  1  0  0  0  0
  1  2  1  0  0  0  0
 16 17  2  0  0  0  0
 16 18  1  0  0  0  0
 14 15  1  0  0  0  0
 11 12  1  0  0  0  0
 11 13  1  0  0  0  0
 11 14  1  0  0  0  0
  9 10  1  0  0  0  0
  9 11  1  0  0  0  0
  9 16  1  0  0  0  0
  7  8  1  0  0  0  0
  7  9  1  0  0  0  0
 20 21  1  0  0  0  0
 20 22  1  0  0  0  0
 20 23  1  0  0  0  0
 18 19  1  0  0  0  0
 18 20  1  0  0  0  0
M  END
$$$$
default_name
  -OEChem-01062215323D

 23 22  0     1  0  0  0  0  0999 V2000
   -2.6721   -3.7279    0.7212 H   0  0  0  0  0  0  0  0  0  0  0  0
   -2.6561   -2.6819    0.4162 C   0  0  0  0  0  0  0  0  0  0  0  0
   -3.2401   -2.0889    1.1172 H   0  0  0  0  0  0  0  0  0  0  0  0
   -3.0671   -2.5859   -0.5858 H   0  0  0  0  0  0  0  0  0  0  0  0
   -1.2261   -2.1939    0.4202 C   0  0  0  0  0  0  0  0  0  0  0  0
   -0.3181   -2.9519    0.7312 O   0  0  0  0  0  0  0  0  0  0  0  0
   -1.0281   -0.9259    0.0662 N   0  0  0  0  0  0  0  0  0  0  0  0
   -1.8301   -0.3519   -0.1548 H   0  0  0  0  0  0  0  0  0  0  0  0
    0.2709   -0.2409    0.0912 C   0  0  1  0  0  0  0  0  0  0  0  0
    0.1347    0.7545    0.5148 H   0  0  0  0  0  0  0  0  0  0  0  0
    1.2489   -1.0086    0.9899 C   0  0  0  0  0  0  0  0  0  0  0  0
    2.1738   -0.4370    1.0824 H   0  0  0  0  0  0  0  0  0  0  0  0
    0.8114   -1.1336    1.9820 H   0  0  0  0  0  0  0  0  0  0  0  0
    1.5511   -2.2771    0.4396 O   0  0  0  0  0  0  0  0  0  0  0  0
    2.2901   -2.6509    0.9316 H   0  0  0  0  0  0  0  0  0  0  0  0
    0.8245   -0.0802   -1.3345 C   0  0  0  0  0  0  0  0  0  0  0  0
    1.9146    0.4638   -1.5147 O   0  0  0  0  0  0  0  0  0  0  0  0
    0.0890   -0.5589   -2.3436 N   0  0  0  0  0  0  0  0  0  0  0  0
   -0.8318   -0.9043   -2.1076 H   0  0  0  0  0  0  0  0  0  0  0  0
    0.4758   -0.5079   -3.7522 C   0  0  0  0  0  0  0  0  0  0  0  0
    1.5188   -0.8131   -3.8605 H   0  0  0  0  0  0  0  0  0  0  0  0
   -0.1561   -1.1742   -4.3402 H   0  0  0  0  0  0  0  0  0  0  0  0
    0.3701    0.5132   -4.1243 H   0  0  0  0  0  0  0  0  0  0  0  0
  5  6  2  0  0  0  0
  5  7  1  0  0  0  0
  2  3  1  0  0  0  0
  2  4  1  0  0  0  0
  2  5  1  0  0  0  0
  1  2  1  0  0  0  0
 16 17  2  0  0  0  0
 16 18  1  0  0  0  0
 14 15  1  0  0  0  0
 11 12  1  0  0  0  0
 11 13  1  0  0  0  0
 11 14  1  0  0  0  0
  9 10  1  0  0  0  0
  9 11  1  0  0  0  0
  9 16  1  0  0  0  0
  7  8  1  0  0  0  0
  7  9  1  0  0  0  0
 20 21  1  0  0  0  0
 20 22  1  0  0  0  0
 20 23  1  0  0  0  0
 18 19  1  0  0  0  0
 18 20  1  0  0  0  0
M  END
$$$$
default_name
  -OEChem-01062215323D

 23 22  0     1  0  0  0  0  0999 V2000
   -2.6721   -3.7279    0.7212 H   0  0  0  0  0  0  0  0  0  0  0  0
   -2.6561   -2.6819    0.4162 C   0  0  0  0  0  0  0  0  0  0  0  0
   -3.2401   -2.0889    1.1172 H   0  0  0  0  0  0  0  0  0  0  0  0
   -3.0671   -2.5859   -0.5858 H   0  0  0  0  0  0  0  0  0  0  0  0
   -1.2261   -2.1939    0.4202 C   0  0  0  0  0  0  0  0  0  0  0  0
   -0.3181   -2.9519    0.7312 O   0  0  0  0  0  0  0  0  0  0  0  0
   -1.0281   -0.9259    0.0662 N   0  0  0  0  0  0  0  0  0  0  0  0
   -1.8301   -0.3519   -0.1548 H   0  0  0  0  0  0  0  0  0  0  0  0
    0.2709   -0.2409    0.0912 C   0  0  1  0  0  0  0  0  0  0  0  0
    0.1347    0.7545    0.5148 H   0  0  0  0  0  0  0  0  0  0  0  0
    1.2489   -1.0086    0.9899 C   0  0  0  0  0  0  0  0  0  0  0  0
    2.1738   -0.4370    1.0824 H   0  0  0  0  0  0  0  0  0  0  0  0
    0.8114   -1.1336    1.9820 H   0  0  0  0  0  0  0  0  0  0  0  0
    1.5511   -2.2771    0.4396 O   0  0  0  0  0  0  0  0  0  0  0  0
    2.2901   -2.6509    0.9316 H   0  0  0  0  0  0  0  0  0  0  0  0
    0.8245   -0.0802   -1.3345 C   0  0  0  0  0  0  0  0  0  0  0  0
    2.0107    0.2027   -1.5068 O   0  0  0  0  0  0  0  0  0  0  0  0
   -0.0205   -0.2699   -2.3536 N   0  0  0  0  0  0  0  0  0  0  0  0
   -0.9936   -0.4066   -2.1143 H   0  0  0  0  0  0  0  0  0  0  0  0
    0.3451   -0.1770   -3.7656 C   0  0  0  0  0  0  0  0  0  0  0  0
    1.2818   -0.7104   -3.9409 H   0  0  0  0  0  0  0  0  0  0  0  0
   -0.4380   -0.6133   -4.3864 H   0  0  0  0  0  0  0  0  0  0  0  0
    0.4830    0.8708   -4.0402 H   0  0  0  0  0  0  0  0  0  0  0  0
  5  6  2  0  0  0  0
  5  7  1  0  0  0  0
  2  3  1  0  0  0  0
  2  4  1  0  0  0  0
  2  5  1  0  0  0  0
  1  2  1  0  0  0  0
 16 17  2  0  0  0  0
 16 18  1  0  0  0  0
 14 15  1  0  0  0  0
 11 12  1  0  0  0  0
 11 13  1  0  0  0  0
 11 14  1  0  0  0  0
  9 10  1  0  0  0  0
  9 11  1  0  0  0  0
  9 16  1  0  0  0  0
  7  8  1  0  0  0  0
  7  9  1  0  0  0  0
 20 21  1  0  0  0  0
 20 22  1  0  0  0  0
 20 23  1  0  0  0  0
 18 19  1  0  0  0  0
 18 20  1  0  0  0  0
M  END
$$$$
default_name
  -OEChem-01062215323D

 23 22  0     1  0  0  0  0  0999 V2000
   -2.6721   -3.7279    0.7212 H   0  0  0  0  0  0  0  0  0  0  0  0
   -2.6561   -2.6819    0.4162 C   0  0  0  0  0  0  0  0  0  0  0  0
   -3.2401   -2.0889    1.1172 H   0  0  0  0  0  0  0  0  0  0  0  0
   -3.0671   -2.5859   -0.5858 H   0  0  0  0  0  0  0  0  0  0  0  0
   -1.2261   -2.1939    0.4202 C   0  0  0  0  0  0  0  0  0  0  0  0
   -0.3181   -2.9519    0.7312 O   0  0  0  0  0  0  0  0  0  0  0  0
   -1.0281   -0.9259    0.0662 N   0  0  0  0  0  0  0  0  0  0  0  0
   -1.8301   -0.3519   -0.1548 H   0  0  0  0  0  0  0  0  0  0  0  0
    0.2709   -0.2409    0.0912 C   0  0  1  0  0  0  0  0  0  0  0  0
    0.1347    0.7545    0.5148 H   0  0  0  0  0  0  0  0  0  0  0  0
    1.2489   -1.0086    0.9899 C   0  0  0  0  0  0  0  0  0  0  0  0
    2.1738   -0.4370    1.0824 H   0  0  0  0  0  0  0  0  0  0  0  0
    0.8114   -1.1336    1.9820 H   0  0  0  0  0  0  0  0  0  0  0  0
    1.5511   -2.2771    0.4396 O   0  0  0  0  0  0  0  0  0  0  0  0
    2.2901   -2.6509    0.9316 H   0  0  0  0  0  0  0  0  0  0  0  0
    0.8245   -0.0802   -1.3345 C   0  0  0  0  0  0  0  0  0  0  0  0
    2.0410   -0.0733   -1.5261 O   0  0  0  0  0  0  0  0  0  0  0  0
   -0.0572    0.0365   -2.3333 N   0  0  0  0  0  0  0  0  0  0  0  0
   -1.0307    0.1136   -2.0701 H   0  0  0  0  0  0  0  0  0  0  0  0
    0.2978    0.1752   -3.7443 C   0  0  0  0  0  0  0  0  0  0  0  0
    1.0753   -0.5468   -4.0027 H   0  0  0  0  0  0  0  0  0  0  0  0
   -0.5770    0.0004   -4.3712 H   0  0  0  0  0  0  0  0  0  0  0  0
    0.6801    1.1813   -3.9287 H   0  0  0  0  0  0  0  0  0  0  0  0
  5  6  2  0  0  0  0
  5  7  1  0  0  0  0
  2  3  1  0  0  0  0
  2  4  1  0  0  0  0
  2  5  1  0  0  0  0
  1  2  1  0  0  0  0
 16 17  2  0  0  0  0
 16 18  1  0  0  0  0
 14 15  1  0  0  0  0
 11 12  1  0  0  0  0
 11 13  1  0  0  0  0
 11 14  1  0  0  0  0
  9 10  1  0  0  0  0
  9 11  1  0  0  0  0
  9 16  1  0  0  0  0
  7  8  1  0  0  0  0
  7  9  1  0  0  0  0
 20 21  1  0  0  0  0
 20 22  1  0  0  0  0
 20 23  1  0  0  0  0
 18 19  1  0  0  0  0
 18 20  1  0  0  0  0
M  END
$$$$
default_name
  -OEChem-01062215323D

 23 22  0     1  0  0  0  0  0999 V2000
   -2.6721   -3.7279    0.7212 H   0  0  0  0  0  0  0  0  0  0  0  0
   -2.6561   -2.6819    0.4162 C   0  0  0  0  0  0  0  0  0  0  0  0
   -3.2401   -2.0889    1.1172 H   0  0  0  0  0  0  0  0  0  0  0  0
   -3.0671   -2.5859   -0.5858 H   0  0  0  0  0  0  0  0  0  0  0  0
   -1.2261   -2.1939    0.4202 C   0  0  0  0  0  0  0  0  0  0  0  0
   -0.3181   -2.9519    0.7312 O   0  0  0  0  0  0  0  0  0  0  0  0
   -1.0281   -0.9259    0.0662 N   0  0  0  0  0  0  0  0  0  0  0  0
   -1.8301   -0.3519   -0.1548 H   0  0  0  0  0  0  0  0  0  0  0  0
    0.2709   -0.2409    0.0912 C   0  0  1  0  0  0  0  0  0  0  0  0
    0.1347    0.7545    0.5148 H   0  0  0  0  0  0  0  0  0  0  0  0
    1.2489   -1.0086    0.9899 C   0  0  0  0  0  0  0  0  0  0  0  0
    2.1738   -0.4370    1.0824 H   0  0  0  0  0  0  0  0  0  0  0  0
    0.8114   -1.1336    1.9820 H   0  0  0  0  0  0  0  0  0  0  0  0
    1.5511   -2.2771    0.4396 O   0  0  0  0  0  0  0  0  0  0  0  0
    2.2901   -2.6509    0.9316 H   0  0  0  0  0  0  0  0  0  0  0  0
    0.8245   -0.0802   -1.3345 C   0  0  0  0  0  0  0  0  0  0  0  0
    2.0036   -0.3454   -1.5713 O   0  0  0  0  0  0  0  0  0  0  0  0
   -0.0186    0.3393   -2.2841 N   0  0  0  0  0  0  0  0  0  0  0  0
   -0.9405    0.6208   -1.9779 H   0  0  0  0  0  0  0  0  0  0  0  0
    0.3372    0.5248   -3.6896 C   0  0  0  0  0  0  0  0  0  0  0  0
    0.9135   -0.3335   -4.0415 H   0  0  0  0  0  0  0  0  0  0  0  0
   -0.5636    0.6252   -4.2956 H   0  0  0  0  0  0  0  0  0  0  0  0
    0.9481    1.4235   -3.7973 H   0  0  0  0  0  0  0  0  0  0  0  0
  5  6  2  0  0  0  0
  5  7  1  0  0  0  0
  2  3  1  0  0  0  0
  2  4  1  0  0  0  0
  2  5  1  0  0  0  0
  1  2  1  0  0  0  0
 16 17  2  0  0  0  0
 16 18  1  0  0  0  0
 14 15  1  0  0  0  0
 11 12  1  0  0  0  0
 11 13  1  0  0  0  0
 11 14  1  0  0  0  0
  9 10  1  0  0  0  0
  9 11  1  0  0  0  0
  9 16  1  0  0  0  0
  7  8  1  0  0  0  0
  7  9  1  0  0  0  0
 20 21  1  0  0  0  0
 20 22  1  0  0  0  0
 20 23  1  0  0  0  0
 18 19  1  0  0  0  0
 18 20  1  0  0  0  0
M  END
$$$$
default_name
  -OEChem-01062215323D

 23 22  0     1  0  0  0  0  0999 V2000
   -2.6721   -3.7279    0.7212 H   0  0  0  0  0  0  0  0  0  0  0  0
   -2.6561   -2.6819    0.4162 C   0  0  0  0  0  0  0  0  0  0  0  0
   -3.2401   -2.0889    1.1172 H   0  0  0  0  0  0  0  0  0  0  0  0
   -3.0671   -2.5859   -0.5858 H   0  0  0  0  0  0  0  0  0  0  0  0
   -1.2261   -2.1939    0.4202 C   0  0  0  0  0  0  0  0  0  0  0  0
   -0.3181   -2.9519    0.7312 O   0  0  0  0  0  0  0  0  0  0  0  0
   -1.0281   -0.9259    0.0662 N   0  0  0  0  0  0  0  0  0  0  0  0
   -1.8301   -0.3519   -0.1548 H   0  0  0  0  0  0  0  0  0  0  0  0
    0.2709   -0.2409    0.0912 C   0  0  1  0  0  0  0  0  0  0  0  0
    0.1347    0.7545    0.5148 H   0  0  0  0  0  0  0  0  0  0  0  0
    1.2489   -1.0086    0.9899 C   0  0  0  0  0  0  0  0  0  0  0  0
    2.1738   -0.4370    1.0824 H   0  0  0  0  0  0  0  0  0  0  0  0
    0.8114   -1.1336    1.9820 H   0  0  0  0  0  0  0  0  0  0  0  0
    1.5511   -2.2771    0.4396 O   0  0  0  0  0  0  0  0  0  0  0  0
    2.2901   -2.6509    0.9316 H   0  0  0  0  0  0  0  0  0  0  0  0
    0.8245   -0.0802   -1.3345 C   0  0  0  0  0  0  0  0  0  0  0  0
    1.9009   -0.5950   -1.6393 O   0  0  0  0  0  0  0  0  0  0  0  0
    0.0927    0.6180   -2.2095 N   0  0  0  0  0  0  0  0  0  0  0  0
   -0.7291    1.0804   -1.8440 H   0  0  0  0  0  0  0  0  0  0  0  0
    0.4607    0.8479   -3.6052 C   0  0  0  0  0  0  0  0  0  0  0  0
    0.8073   -0.0851   -4.0547 H   0  0  0  0  0  0  0  0  0  0  0  0
   -0.3987    1.2184   -4.1647 H   0  0  0  0  0  0  0  0  0  0  0  0
    1.2685    1.5809   -3.6551 H   0  0  0  0  0  0  0  0  0  0  0  0
  5  6  2  0  0  0  0
  5  7  1  0  0  0  0
  2  3  1  0  0  0  0
  2  4  1  0  0  0  0
  2  5  1  0  0  0  0
  1  2  1  0  0  0  0
 16 17  2  0  0  0  0
 16 18  1  0  0  0  0
 14 15  1  0  0  0  0
 11 12  1  0  0  0  0
 11 13  1  0  0  0  0
 11 14  1  0  0  0  0
  9 10  1  0  0  0  0
  9 11  1  0  0  0  0
  9 16  1  0  0  0  0
  7  8  1  0  0  0  0
  7  9  1  0  0  0  0
 20 21  1  0  0  0  0
 20 22  1  0  0  0  0
 20 23  1  0  0  0  0
 18 19  1  0  0  0  0
 18 20  1  0  0  0  0
M  END
$$$$
default_name
  -OEChem-01062215323D

 23 22  0     1  0  0  0  0  0999 V2000
   -2.6721   -3.7279    0.7212 H   0  0  0  0  0  0  0  0  0  0  0  0
   -2.6561   -2.6819    0.4162 C   0  0  0  0  0  0  0  0  0  0  0  0
   -3.2401   -2.0889    1.1172 H   0  0  0  0  0  0  0  0  0  0  0  0
   -3.0671   -2.5859   -0.5858 H   0  0  0  0  0  0  0  0  0  0  0  0
   -1.2261   -2.1939    0.4202 C   0  0  0  0  0  0  0  0  0  0  0  0
   -0.3181   -2.9519    0.7312 O   0  0  0  0  0  0  0  0  0  0  0  0
   -1.0281   -0.9259    0.0662 N   0  0  0  0  0  0  0  0  0  0  0  0
   -1.8301   -0.3519   -0.1548 H   0  0  0  0  0  0  0  0  0  0  0  0
    0.2709   -0.2409    0.0912 C   0  0  1  0  0  0  0  0  0  0  0  0
    0.1347    0.7545    0.5148 H   0  0  0  0  0  0  0  0  0  0  0  0
    1.2489   -1.0086    0.9899 C   0  0  0  0  0  0  0  0  0  0  0  0
    2.1738   -0.4370    1.0824 H   0  0  0  0  0  0  0  0  0  0  0  0
    0.8114   -1.1336    1.9820 H   0  0  0  0  0  0  0  0  0  0  0  0
    1.5511   -2.2771    0.4396 O   0  0  0  0  0  0  0  0  0  0  0  0
    2.2901   -2.6509    0.9316 H   0  0  0  0  0  0  0  0  0  0  0  0
    0.8245   -0.0802   -1.3345 C   0  0  0  0  0  0  0  0  0  0  0  0
    1.7400   -0.8052   -1.7255 O   0  0  0  0  0  0  0  0  0  0  0  0
    0.2692    0.8536   -2.1144 N   0  0  0  0  0  0  0  0  0  0  0  0
   -0.4111    1.4613   -1.6775 H   0  0  0  0  0  0  0  0  0  0  0  0
    0.6598    1.1225   -3.4969 C   0  0  0  0  0  0  0  0  0  0  0  0
    0.7640    0.1816   -4.0415 H   0  0  0  0  0  0  0  0  0  0  0  0
   -0.0936    1.7396   -3.9874 H   0  0  0  0  0  0  0  0  0  0  0  0
    1.6197    1.6429   -3.5118 H   0  0  0  0  0  0  0  0  0  0  0  0
  5  6  2  0  0  0  0
  5  7  1  0  0  0  0
  2  3  1  0  0  0  0
  2  4  1  0  0  0  0
  2  5  1  0  0  0  0
  1  2  1  0  0  0  0
 16 17  2  0  0  0  0
 16 18  1  0  0  0  0
 14 15  1  0  0  0  0
 11 12  1  0  0  0  0
 11 13  1  0  0  0  0
 11 14  1  0  0  0  0
  9 10  1  0  0  0  0
  9 11  1  0  0  0  0
  9 16  1  0  0  0  0
  7  8  1  0  0  0  0
  7  9  1  0  0  0  0
 20 21  1  0  0  0  0
 20 22  1  0  0  0  0
 20 23  1  0  0  0  0
 18 19  1  0  0  0  0
 18 20  1  0  0  0  0
M  END
$$$$
default_name
  -OEChem-01062215323D

 23 22  0     1  0  0  0  0  0999 V2000
   -2.6721   -3.7279    0.7212 H   0  0  0  0  0  0  0  0  0  0  0  0
   -2.6561   -2.6819    0.4162 C   0  0  0  0  0  0  0  0  0  0  0  0
   -3.2401   -2.0889    1.1172 H   0  0  0  0  0  0  0  0  0  0  0  0
   -3.0671   -2.5859   -0.5858 H   0  0  0  0  0  0  0  0  0  0  0  0
   -1.2261   -2.1939    0.4202 C   0  0  0  0  0  0  0  0  0  0  0  0
   -0.3181   -2.9519    0.7312 O   0  0  0  0  0  0  0  0  0  0  0  0
   -1.0281   -0.9259    0.0662 N   0  0  0  0  0  0  0  0  0  0  0  0
   -1.8301   -0.3519   -0.1548 H   0  0  0  0  0  0  0  0  0  0  0  0
    0.2709   -0.2409    0.0912 C   0  0  1  0  0  0  0  0  0  0  0  0
    0.1347    0.7545    0.5148 H   0  0  0  0  0  0  0  0  0  0  0  0
    1.2489   -1.0086    0.9899 C   0  0  0  0  0  0  0  0  0  0  0  0
    2.1738   -0.4370    1.0824 H   0  0  0  0  0  0  0  0  0  0  0  0
    0.8114   -1.1336    1.9820 H   0  0  0  0  0  0  0  0  0  0  0  0
    1.5511   -2.2771    0.4396 O   0  0  0  0  0  0  0  0  0  0  0  0
    2.2901   -2.6509    0.9316 H   0  0  0  0  0  0  0  0  0  0  0  0
    0.8245   -0.0802   -1.3345 C   0  0  0  0  0  0  0  0  0  0  0  0
    1.5318   -0.9615   -1.8240 O   0  0  0  0  0  0  0  0  0  0  0  0
    0.4986    1.0299   -2.0054 N   0  0  0  0  0  0  0  0  0  0  0  0
   -0.0080    1.7373   -1.4899 H   0  0  0  0  0  0  0  0  0  0  0  0
    0.9209    1.3299   -3.3722 C   0  0  0  0  0  0  0  0  0  0  0  0
    0.7865    0.4484   -4.0027 H   0  0  0  0  0  0  0  0  0  0  0  0
    0.3310    2.1533   -3.7759 H   0  0  0  0  0  0  0  0  0  0  0  0
    1.9776    1.6051   -3.3771 H   0  0  0  0  0  0  0  0  0  0  0  0
  5  6  2  0  0  0  0
  5  7  1  0  0  0  0
  2  3  1  0  0  0  0
  2  4  1  0  0  0  0
  2  5  1  0  0  0  0
  1  2  1  0  0  0  0
 16 17  2  0  0  0  0
 16 18  1  0  0  0  0
 14 15  1  0  0  0  0
 11 12  1  0  0  0  0
 11 13  1  0  0  0  0
 11 14  1  0  0  0  0
  9 10  1  0  0  0  0
  9 11  1  0  0  0  0
  9 16  1  0  0  0  0
  7  8  1  0  0  0  0
  7  9  1  0  0  0  0
 20 21  1  0  0  0  0
 20 22  1  0  0  0  0
 20 23  1  0  0  0  0
 18 19  1  0  0  0  0
 18 20  1  0  0  0  0
M  END
$$$$
default_name
  -OEChem-01062215323D

 23 22  0     1  0  0  0  0  0999 V2000
   -2.6721   -3.7279    0.7212 H   0  0  0  0  0  0  0  0  0  0  0  0
   -2.6561   -2.6819    0.4162 C   0  0  0  0  0  0  0  0  0  0  0  0
   -3.2401   -2.0889    1.1172 H   0  0  0  0  0  0  0  0  0  0  0  0
   -3.0671   -2.5859   -0.5858 H   0  0  0  0  0  0  0  0  0  0  0  0
   -1.2261   -2.1939    0.4202 C   0  0  0  0  0  0  0  0  0  0  0  0
   -0.3181   -2.9519    0.7312 O   0  0  0  0  0  0  0  0  0  0  0  0
   -1.0281   -0.9259    0.0662 N   0  0  0  0  0  0  0  0  0  0  0  0
   -1.8301   -0.3519   -0.1548 H   0  0  0  0  0  0  0  0  0  0  0  0
    0.2709   -0.2409    0.0912 C   0  0  1  0  0  0  0  0  0  0  0  0
    0.1347    0.7545    0.5148 H   0  0  0  0  0  0  0  0  0  0  0  0
    1.2489   -1.0086    0.9899 C   0  0  0  0  0  0  0  0  0  0  0  0
    2.1738   -0.4370    1.0824 H   0  0  0  0  0  0  0  0  0  0  0  0
    0.8114   -1.1336    1.9820 H   0  0  0  0  0  0  0  0  0  0  0  0
    1.5511   -2.2771    0.4396 O   0  0  0  0  0  0  0  0  0  0  0  0
    2.2901   -2.6509    0.9316 H   0  0  0  0  0  0  0  0  0  0  0  0
    0.8245   -0.0802   -1.3345 C   0  0  0  0  0  0  0  0  0  0  0  0
    1.2906   -1.0534   -1.9280 O   0  0  0  0  0  0  0  0  0  0  0  0
    0.7656    1.1350   -1.8899 N   0  0  0  0  0  0  0  0  0  0  0  0
    0.4527    1.8897   -1.2938 H   0  0  0  0  0  0  0  0  0  0  0  0
    1.2262    1.4560   -3.2394 C   0  0  0  0  0  0  0  0  0  0  0  0
    0.8733    0.6971   -3.9409 H   0  0  0  0  0  0  0  0  0  0  0  0
    0.8462    2.4314   -3.5445 H   0  0  0  0  0  0  0  0  0  0  0  0
    2.3179    1.4701   -3.2601 H   0  0  0  0  0  0  0  0  0  0  0  0
  5  6  2  0  0  0  0
  5  7  1  0  0  0  0
  2  3  1  0  0  0  0
  2  4  1  0  0  0  0
  2  5  1  0  0  0  0
  1  2  1  0  0  0  0
 16 17  2  0  0  0  0
 16 18  1  0  0  0  0
 14 15  1  0  0  0  0
 11 12  1  0  0  0  0
 11 13  1  0  0  0  0
 11 14  1  0  0  0  0
  9 10  1  0  0  0  0
  9 11  1  0  0  0  0
  9 16  1  0  0  0  0
  7  8  1  0  0  0  0
  7  9  1  0  0  0  0
 20 21  1  0  0  0  0
 20 22  1  0  0  0  0
 20 23  1  0  0  0  0
 18 19  1  0  0  0  0
 18 20  1  0  0  0  0
M  END
$$$$
default_name
  -OEChem-01062215323D

 23 22  0     1  0  0  0  0  0999 V2000
   -2.6721   -3.7279    0.7212 H   0  0  0  0  0  0  0  0  0  0  0  0
   -2.6561   -2.6819    0.4162 C   0  0  0  0  0  0  0  0  0  0  0  0
   -3.2401   -2.0889    1.1172 H   0  0  0  0  0  0  0  0  0  0  0  0
   -3.0671   -2.5859   -0.5858 H   0  0  0  0  0  0  0  0  0  0  0  0
   -1.2261   -2.1939    0.4202 C   0  0  0  0  0  0  0  0  0  0  0  0
   -0.3181   -2.9519    0.7312 O   0  0  0  0  0  0  0  0  0  0  0  0
   -1.0281   -0.9259    0.0662 N   0  0  0  0  0  0  0  0  0  0  0  0
   -1.8301   -0.3519   -0.1548 H   0  0  0  0  0  0  0  0  0  0  0  0
    0.2709   -0.2409    0.0912 C   0  0  1  0  0  0  0  0  0  0  0  0
    0.1347    0.7545    0.5148 H   0  0  0  0  0  0  0  0  0  0  0  0
    1.2489   -1.0086    0.9899 C   0  0  0  0  0  0  0  0  0  0  0  0
    2.1738   -0.4370    1.0824 H   0  0  0  0  0  0  0  0  0  0  0  0
    0.8114   -1.1336    1.9820 H   0  0  0  0  0  0  0  0  0  0  0  0
    1.5511   -2.2771    0.4396 O   0  0  0  0  0  0  0  0  0  0  0  0
    2.2901   -2.6509    0.9316 H   0  0  0  0  0  0  0  0  0  0  0  0
    0.8245   -0.0802   -1.3345 C   0  0  0  0  0  0  0  0  0  0  0  0
    1.0327   -1.0746   -2.0306 O   0  0  0  0  0  0  0  0  0  0  0  0
    1.0517    1.1617   -1.7758 N   0  0  0  0  0  0  0  0  0  0  0  0
    0.9396    1.9081   -1.1027 H   0  0  0  0  0  0  0  0  0  0  0  0
    1.5550    1.4921   -3.1076 C   0  0  0  0  0  0  0  0  0  0  0  0
    1.0185    0.9107   -3.8605 H   0  0  0  0  0  0  0  0  0  0  0  0
    1.4168    2.5548   -3.3090 H   0  0  0  0  0  0  0  0  0  0  0  0
    2.6174    1.2472   -3.1689 H   0  0  0  0  0  0  0  0  0  0  0  0
  5  6  2  0  0  0  0
  5  7  1  0  0  0  0
  2  3  1  0  0  0  0
  2  4  1  0  0  0  0
  2  5  1  0  0  0  0
  1  2  1  0  0  0  0
 16 17  2  0  0  0  0
 16 18  1  0  0  0  0
 14 15  1  0  0  0  0
 11 12  1  0  0  0  0
 11 13  1  0  0  0  0
 11 14  1  0  0  0  0
  9 10  1  0  0  0  0
  9 11  1  0  0  0  0
  9 16  1  0  0  0  0
  7  8  1  0  0  0  0
  7  9  1  0  0  0  0
 20 21  1  0  0  0  0
 20 22  1  0  0  0  0
 20 23  1  0  0  0  0
 18 19  1  0  0  0  0
 18 20  1  0  0  0  0
M  END
$$$$
default_name
  -OEChem-01062215323D

 23 22  0     1  0  0  0  0  0999 V2000
   -2.6721   -3.7279    0.7212 H   0  0  0  0  0  0  0  0  0  0  0  0
   -2.6561   -2.6819    0.4162 C   0  0  0  0  0  0  0  0  0  0  0  0
   -3.2401   -2.0889    1.1172 H   0  0  0  0  0  0  0  0  0  0  0  0
   -3.0671   -2.5859   -0.5858 H   0  0  0  0  0  0  0  0  0  0  0  0
   -1.2261   -2.1939    0.4202 C   0  0  0  0  0  0  0  0  0  0  0  0
   -0.3181   -2.9519    0.7312 O   0  0  0  0  0  0  0  0  0  0  0  0
   -1.0281   -0.9259    0.0662 N   0  0  0  0  0  0  0  0  0  0  0  0
   -1.8301   -0.3519   -0.1548 H   0  0  0  0  0  0  0  0  0  0  0  0
    0.2709   -0.2409    0.0912 C   0  0  1  0  0  0  0  0  0  0  0  0
    0.1347    0.7545    0.5148 H   0  0  0  0  0  0  0  0  0  0  0  0
    1.2489   -1.0086    0.9899 C   0  0  0  0  0  0  0  0  0  0  0  0
    2.1738   -0.4370    1.0824 H   0  0  0  0  0  0  0  0  0  0  0  0
    0.8114   -1.1336    1.9820 H   0  0  0  0  0  0  0  0  0  0  0  0
    1.5511   -2.2771    0.4396 O   0  0  0  0  0  0  0  0  0  0  0  0
    2.2901   -2.6509    0.9316 H   0  0  0  0  0  0  0  0  0  0  0  0
    0.8245   -0.0802   -1.3345 C   0  0  0  0  0  0  0  0  0  0  0  0
    0.7757   -1.0236   -2.1246 O   0  0  0  0  0  0  0  0  0  0  0  0
    1.3376    1.1082   -1.6708 N   0  0  0  0  0  0  0  0  0  0  0  0
    1.4194    1.7913   -0.9295 H   0  0  0  0  0  0  0  0  0  0  0  0
    1.8848    1.4358   -2.9859 C   0  0  0  0  0  0  0  0  0  0  0  0
    1.2122    1.0747   -3.7668 H   0  0  0  0  0  0  0  0  0  0  0  0
    2.0039    2.5151   -3.0855 H   0  0  0  0  0  0  0  0  0  0  0  0
    2.8557    0.9516   -3.1097 H   0  0  0  0  0  0  0  0  0  0  0  0
  5  6  2  0  0  0  0
  5  7  1  0  0  0  0
  2  3  1  0  0  0  0
  2  4  1  0  0  0  0
  2  5  1  0  0  0  0
  1  2  1  0  0  0  0
 16 17  2  0  0  0  0
 16 18  1  0  0  0  0
 14 15  1  0  0  0  0
 11 12  1  0  0  0  0
 11 13  1  0  0  0  0
 11 14  1  0  0  0  0
  9 10  1  0  0  0  0
  9 11  1  0  0  0  0
  9 16  1  0  0  0  0
  7  8  1  0  0  0  0
  7  9  1  0  0  0  0
 20 21  1  0  0  0  0
 20 22  1  0  0  0  0
 20 23  1  0  0  0  0
 18 19  1  0  0  0  0
 18 20  1  0  0  0  0
M  END
$$$$
default_name
  -OEChem-01062215323D

 23 22  0     1  0  0  0  0  0999 V2000
   -2.6721   -3.7279    0.7212 H   0  0  0  0  0  0  0  0  0  0  0  0
   -2.6561   -2.6819    0.4162 C   0  0  0  0  0  0  0  0  0  0  0  0
   -3.2401   -2.0889    1.1172 H   0  0  0  0  0  0  0  0  0  0  0  0
   -3.0671   -2.5859   -0.5858 H   0  0  0  0  0  0  0  0  0  0  0  0
   -1.2261   -2.1939    0.4202 C   0  0  0  0  0  0  0  0  0  0  0  0
   -0.3181   -2.9519    0.7312 O   0  0  0  0  0  0  0  0  0  0  0  0
   -1.0281   -0.9259    0.0662 N   0  0  0  0  0  0  0  0  0  0  0  0
   -1.8301   -0.3519   -0.1548 H   0  0  0  0  0  0  0  0  0  0  0  0
    0.2709   -0.2409    0.0912 C   0  0  1  0  0  0  0  0  0  0  0  0
    0.1347    0.7545    0.5148 H   0  0  0  0  0  0  0  0  0  0  0  0
    1.2489   -1.0086    0.9899 C   0  0  0  0  0  0  0  0  0  0  0  0
    2.1738   -0.4370    1.0824 H   0  0  0  0  0  0  0  0  0  0  0  0
    0.8114   -1.1336    1.9820 H   0  0  0  0  0  0  0  0  0  0  0  0
    1.5511   -2.2771    0.4396 O   0  0  0  0  0  0  0  0  0  0  0  0
    2.2901   -2.6509    0.9316 H   0  0  0  0  0  0  0  0  0  0  0  0
    0.8245   -0.0802   -1.3345 C   0  0  0  0  0  0  0  0  0  0  0  0
    0.5372   -0.9039   -2.2037 O   0  0  0  0  0  0  0  0  0  0  0  0
    1.6038    0.9781   -1.5821 N   0  0  0  0  0  0  0  0  0  0  0  0
    1.8596    1.5471   -0.7861 H   0  0  0  0  0  0  0  0  0  0  0  0
    2.1932    1.2910   -2.8825 C   0  0  0  0  0  0  0  0  0  0  0  0
    1.4411    1.1779   -3.6662 H   0  0  0  0  0  0  0  0  0  0  0  0
    2.5675    2.3151   -2.8892 H   0  0  0  0  0  0  0  0  0  0  0  0
    3.0165    0.6033   -3.0865 H   0  0  0  0  0  0  0  0  0  0  0  0
  5  6  2  0  0  0  0
  5  7  1  0  0  0  0
  2  3  1  0  0  0  0
  2  4  1  0  0  0  0
  2  5  1  0  0  0  0
  1  2  1  0  0  0  0
 16 17  2  0  0  0  0
 16 18  1  0  0  0  0
 14 15  1  0  0  0  0
 11 12  1  0  0  0  0
 11 13  1  0  0  0  0
 11 14  1  0  0  0  0
  9 10  1  0  0  0  0
  9 11  1  0  0  0  0
  9 16  1  0  0  0  0
  7  8  1  0  0  0  0
  7  9  1  0  0  0  0
 20 21  1  0  0  0  0
 20 22  1  0  0  0  0
 20 23  1  0  0  0  0
 18 19  1  0  0  0  0
 18 20  1  0  0  0  0
M  END
$$$$
default_name
  -OEChem-01062215323D

 23 22  0     1  0  0  0  0  0999 V2000
   -2.6721   -3.7279    0.7212 H   0  0  0  0  0  0  0  0  0  0  0  0
   -2.6561   -2.6819    0.4162 C   0  0  0  0  0  0  0  0  0  0  0  0
   -3.2401   -2.0889    1.1172 H   0  0  0  0  0  0  0  0  0  0  0  0
   -3.0671   -2.5859   -0.5858 H   0  0  0  0  0  0  0  0  0  0  0  0
   -1.2261   -2.1939    0.4202 C   0  0  0  0  0  0  0  0  0  0  0  0
   -0.3181   -2.9519    0.7312 O   0  0  0  0  0  0  0  0  0  0  0  0
   -1.0281   -0.9259    0.0662 N   0  0  0  0  0  0  0  0  0  0  0  0
   -1.8301   -0.3519   -0.1548 H   0  0  0  0  0  0  0  0  0  0  0  0
    0.2709   -0.2409    0.0912 C   0  0  1  0  0  0  0  0  0  0  0  0
    0.1347    0.7545    0.5148 H   0  0  0  0  0  0  0  0  0  0  0  0
    1.2489   -1.0086    0.9899 C   0  0  0  0  0  0  0  0  0  0  0  0
    2.1738   -0.4370    1.0824 H   0  0  0  0  0  0  0  0  0  0  0  0
    0.8114   -1.1336    1.9820 H   0  0  0  0  0  0  0  0  0  0  0  0
    1.5511   -2.2771    0.4396 O   0  0  0  0  0  0  0  0  0  0  0  0
    2.2901   -2.6509    0.9316 H   0  0  0  0  0  0  0  0  0  0  0  0
    0.8245   -0.0802   -1.3345 C   0  0  0  0  0  0  0  0  0  0  0  0
    0.3334   -0.7237   -2.2626 O   0  0  0  0  0  0  0  0  0  0  0  0
    1.8321    0.7803   -1.5158 N   0  0  0  0  0  0  0  0  0  0  0  0
    2.2300    1.1924   -0.6823 H   0  0  0  0  0  0  0  0  0  0  0  0
    2.4591    1.0675   -2.8044 C   0  0  0  0  0  0  0  0  0  0  0  0
    1.6898    1.2133   -3.5657 H   0  0  0  0  0  0  0  0  0  0  0  0
    3.0692    1.9684   -2.7335 H   0  0  0  0  0  0  0  0  0  0  0  0
    3.0889    0.2262   -3.1009 H   0  0  0  0  0  0  0  0  0  0  0  0
  5  6  2  0  0  0  0
  5  7  1  0  0  0  0
  2  3  1  0  0  0  0
  2  4  1  0  0  0  0
  2  5  1  0  0  0  0
  1  2  1  0  0  0  0
 16 17  2  0  0  0  0
 16 18  1  0  0  0  0
 14 15  1  0  0  0  0
 11 12  1  0  0  0  0
 11 13  1  0  0  0  0
 11 14  1  0  0  0  0
  9 10  1  0  0  0  0
  9 11  1  0  0  0  0
  9 16  1  0  0  0  0
  7  8  1  0  0  0  0
  7  9  1  0  0  0  0
 20 21  1  0  0  0  0
 20 22  1  0  0  0  0
 20 23  1  0  0  0  0
 18 19  1  0  0  0  0
 18 20  1  0  0  0  0
M  END
$$$$
default_name
  -OEChem-01062215323D

 23 22  0     1  0  0  0  0  0999 V2000
   -2.6721   -3.7279    0.7212 H   0  0  0  0  0  0  0  0  0  0  0  0
   -2.6561   -2.6819    0.4162 C   0  0  0  0  0  0  0  0  0  0  0  0
   -3.2401   -2.0889    1.1172 H   0  0  0  0  0  0  0  0  0  0  0  0
   -3.0671   -2.5859   -0.5858 H   0  0  0  0  0  0  0  0  0  0  0  0
   -1.2261   -2.1939    0.4202 C   0  0  0  0  0  0  0  0  0  0  0  0
   -0.3181   -2.9519    0.7312 O   0  0  0  0  0  0  0  0  0  0  0  0
   -1.0281   -0.9259    0.0662 N   0  0  0  0  0  0  0  0  0  0  0  0
   -1.8301   -0.3519   -0.1548 H   0  0  0  0  0  0  0  0  0  0  0  0
    0.2709   -0.2409    0.0912 C   0  0  1  0  0  0  0  0  0  0  0  0
    0.1966    0.6286    0.7448 H   0  0  0  0  0  0  0  0  0  0  0  0
    1.3432   -1.1756    0.6658 C   0  0  0  0  0  0  0  0  0  0  0  0
    2.2780   -0.6232    0.7750 H   0  0  0  0  0  0  0  0  0  0  0  0
    1.0279   -1.5321    1.6480 H   0  0  0  0  0  0  0  0  0  0  0  0
    1.5642   -2.2788   -0.1928 O   0  0  0  0  0  0  0  0  0  0  0  0
    2.3537   -2.7415    0.1079 H   0  0  0  0  0  0  0  0  0  0  0  0
    0.6491    0.2517   -1.3156 C   0  0  0  0  0  0  0  0  0  0  0  0
   -0.1131    0.0558   -2.2629 O   0  0  0  0  0  0  0  0  0  0  0  0
    1.8115    0.8982   -1.4553 N   0  0  0  0  0  0  0  0  0  0  0  0
    2.4117    0.9296   -0.6419 H   0  0  0  0  0  0  0  0  0  0  0  0
    2.3112    1.4486   -2.7136 C   0  0  0  0  0  0  0  0  0  0  0  0
    1.5105    1.9861   -3.2261 H   0  0  0  0  0  0  0  0  0  0  0  0
    3.1382    2.1332   -2.5227 H   0  0  0  0  0  0  0  0  0  0  0  0
    2.6549    0.6366   -3.3578 H   0  0  0  0  0  0  0  0  0  0  0  0
  5  6  2  0  0  0  0
  5  7  1  0  0  0  0
  2  3  1  0  0  0  0
  2  4  1  0  0  0  0
  2  5  1  0  0  0  0
  1  2  1  0  0  0  0
 16 17  2  0  0  0  0
 16 18  1  0  0  0  0
 14 15  1  0  0  0  0
 11 12  1  0  0  0  0
 11 13  1  0  0  0  0
 11 14  1  0  0  0  0
  9 10  1  0  0  0  0
  9 11  1  0  0  0  0
  9 16  1  0  0  0  0
  7  8  1  0  0  0  0
  7  9  1  0  0  0  0
 20 21  1  0  0  0  0
 20 22  1  0  0  0  0
 20 23  1  0  0  0  0
 18 19  1  0  0  0  0
 18 20  1  0  0  0  0
M  END
$$$$
default_name
  -OEChem-01062215323D

 23 22  0     1  0  0  0  0  0999 V2000
   -2.6721   -3.7279    0.7212 H   0  0  0  0  0  0  0  0  0  0  0  0
   -2.6561   -2.6819    0.4162 C   0  0  0  0  0  0  0  0  0  0  0  0
   -3.2401   -2.0889    1.1172 H   0  0  0  0  0  0  0  0  0  0  0  0
   -3.0671   -2.5859   -0.5858 H   0  0  0  0  0  0  0  0  0  0  0  0
   -1.2261   -2.1939    0.4202 C   0  0  0  0  0  0  0  0  0  0  0  0
   -0.3181   -2.9519    0.7312 O   0  0  0  0  0  0  0  0  0  0  0  0
   -1.0281   -0.9259    0.0662 N   0  0  0  0  0  0  0  0  0  0  0  0
   -1.8301   -0.3519   -0.1548 H   0  0  0  0  0  0  0  0  0  0  0  0
    0.2709   -0.2409    0.0912 C   0  0  1  0  0  0  0  0  0  0  0  0
    0.1966    0.6286    0.7448 H   0  0  0  0  0  0  0  0  0  0  0  0
    1.3432   -1.1756    0.6658 C   0  0  0  0  0  0  0  0  0  0  0  0
    2.2780   -0.6232    0.7750 H   0  0  0  0  0  0  0  0  0  0  0  0
    1.0279   -1.5321    1.6480 H   0  0  0  0  0  0  0  0  0  0  0  0
    1.5642   -2.2788   -0.1928 O   0  0  0  0  0  0  0  0  0  0  0  0
    2.3537   -2.7415    0.1079 H   0  0  0  0  0  0  0  0  0  0  0  0
    0.6491    0.2517   -1.3156 C   0  0  0  0  0  0  0  0  0  0  0  0
   -0.2069    0.3100   -2.1991 O   0  0  0  0  0  0  0  0  0  0  0  0
    1.9186    0.6167   -1.5251 N   0  0  0  0  0  0  0  0  0  0  0  0
    2.5683    0.4467   -0.7689 H   0  0  0  0  0  0  0  0  0  0  0  0
    2.4395    1.1259   -2.7922 C   0  0  0  0  0  0  0  0  0  0  0  0
    1.7545    1.8721   -3.2004 H   0  0  0  0  0  0  0  0  0  0  0  0
    3.4182    1.5819   -2.6404 H   0  0  0  0  0  0  0  0  0  0  0  0
    2.5292    0.3057   -3.5075 H   0  0  0  0  0  0  0  0  0  0  0  0
  5  6  2  0  0  0  0
  5  7  1  0  0  0  0
  2  3  1  0  0  0  0
  2  4  1  0  0  0  0
  2  5  1  0  0  0  0
  1  2  1  0  0  0  0
 16 17  2  0  0  0  0
 16 18  1  0  0  0  0
 14 15  1  0  0  0  0
 11 12  1  0  0  0  0
 11 13  1  0  0  0  0
 11 14  1  0  0  0  0
  9 10  1  0  0  0  0
  9 11  1  0  0  0  0
  9 16  1  0  0  0  0
  7  8  1  0  0  0  0
  7  9  1  0  0  0  0
 20 21  1  0  0  0  0
 20 22  1  0  0  0  0
 20 23  1  0  0  0  0
 18 19  1  0  0  0  0
 18 20  1  0  0  0  0
M  END
$$$$
default_name
  -OEChem-01062215323D

 23 22  0     1  0  0  0  0  0999 V2000
   -2.6721   -3.7279    0.7212 H   0  0  0  0  0  0  0  0  0  0  0  0
   -2.6561   -2.6819    0.4162 C   0  0  0  0  0  0  0  0  0  0  0  0
   -3.2401   -2.0889    1.1172 H   0  0  0  0  0  0  0  0  0  0  0  0
   -3.0671   -2.5859   -0.5858 H   0  0  0  0  0  0  0  0  0  0  0  0
   -1.2261   -2.1939    0.4202 C   0  0  0  0  0  0  0  0  0  0  0  0
   -0.3181   -2.9519    0.7312 O   0  0  0  0  0  0  0  0  0  0  0  0
   -1.0281   -0.9259    0.0662 N   0  0  0  0  0  0  0  0  0  0  0  0
   -1.8301   -0.3519   -0.1548 H   0  0  0  0  0  0  0  0  0  0  0  0
    0.2709   -0.2409    0.0912 C   0  0  1  0  0  0  0  0  0  0  0  0
    0.1966    0.6286    0.7448 H   0  0  0  0  0  0  0  0  0  0  0  0
    1.3432   -1.1756    0.6658 C   0  0  0  0  0  0  0  0  0  0  0  0
    2.2780   -0.6232    0.7750 H   0  0  0  0  0  0  0  0  0  0  0  0
    1.0279   -1.5321    1.6480 H   0  0  0  0  0  0  0  0  0  0  0  0
    1.5642   -2.2788   -0.1928 O   0  0  0  0  0  0  0  0  0  0  0  0
    2.3537   -2.7415    0.1079 H   0  0  0  0  0  0  0  0  0  0  0  0
    0.6491    0.2517   -1.3156 C   0  0  0  0  0  0  0  0  0  0  0  0
   -0.2320    0.5737   -2.1136 O   0  0  0  0  0  0  0  0  0  0  0  0
    1.9495    0.3238   -1.6193 N   0  0  0  0  0  0  0  0  0  0  0  0
    2.5947   -0.0488   -0.9353 H   0  0  0  0  0  0  0  0  0  0  0  0
    2.4804    0.7888   -2.8992 C   0  0  0  0  0  0  0  0  0  0  0  0
    1.9653    1.7026   -3.2031 H   0  0  0  0  0  0  0  0  0  0  0  0
    3.5484    0.9906   -2.8125 H   0  0  0  0  0  0  0  0  0  0  0  0
    2.3170    0.0254   -3.6627 H   0  0  0  0  0  0  0  0  0  0  0  0
  5  6  2  0  0  0  0
  5  7  1  0  0  0  0
  2  3  1  0  0  0  0
  2  4  1  0  0  0  0
  2  5  1  0  0  0  0
  1  2  1  0  0  0  0
 16 17  2  0  0  0  0
 16 18  1  0  0  0  0
 14 15  1  0  0  0  0
 11 12  1  0  0  0  0
 11 13  1  0  0  0  0
 11 14  1  0  0  0  0
  9 10  1  0  0  0  0
  9 11  1  0  0  0  0
  9 16  1  0  0  0  0
  7  8  1  0  0  0  0
  7  9  1  0  0  0  0
 20 21  1  0  0  0  0
 20 22  1  0  0  0  0
 20 23  1  0  0  0  0
 18 19  1  0  0  0  0
 18 20  1  0  0  0  0
M  END
$$$$
default_name
  -OEChem-01062215323D

 23 22  0     1  0  0  0  0  0999 V2000
   -2.6721   -3.7279    0.7212 H   0  0  0  0  0  0  0  0  0  0  0  0
   -2.6561   -2.6819    0.4162 C   0  0  0  0  0  0  0  0  0  0  0  0
   -3.2401   -2.0889    1.1172 H   0  0  0  0  0  0  0  0  0  0  0  0
   -3.0671   -2.5859   -0.5858 H   0  0  0  0  0  0  0  0  0  0  0  0
   -1.2261   -2.1939    0.4202 C   0  0  0  0  0  0  0  0  0  0  0  0
   -0.3181   -2.9519    0.7312 O   0  0  0  0  0  0  0  0  0  0  0  0
   -1.0281   -0.9259    0.0662 N   0  0  0  0  0  0  0  0  0  0  0  0
   -1.8301   -0.3519   -0.1548 H   0  0  0  0  0  0  0  0  0  0  0  0
    0.2709   -0.2409    0.0912 C   0  0  1  0  0  0  0  0  0  0  0  0
    0.1966    0.6286    0.7448 H   0  0  0  0  0  0  0  0  0  0  0  0
    1.3432   -1.1756    0.6658 C   0  0  0  0  0  0  0  0  0  0  0  0
    2.2780   -0.6232    0.7750 H   0  0  0  0  0  0  0  0  0  0  0  0
    1.0279   -1.5321    1.6480 H   0  0  0  0  0  0  0  0  0  0  0  0
    1.5642   -2.2788   -0.1928 O   0  0  0  0  0  0  0  0  0  0  0  0
    2.3537   -2.7415    0.1079 H   0  0  0  0  0  0  0  0  0  0  0  0
    0.6491    0.2517   -1.3156 C   0  0  0  0  0  0  0  0  0  0  0  0
   -0.1868    0.8288   -2.0120 O   0  0  0  0  0  0  0  0  0  0  0  0
    1.9023    0.0395   -1.7315 N   0  0  0  0  0  0  0  0  0  0  0  0
    2.4891   -0.5230   -1.1297 H   0  0  0  0  0  0  0  0  0  0  0  0
    2.4312    0.4603   -3.0274 C   0  0  0  0  0  0  0  0  0  0  0  0
    2.1286    1.4891   -3.2339 H   0  0  0  0  0  0  0  0  0  0  0  0
    3.5199    0.3996   -3.0271 H   0  0  0  0  0  0  0  0  0  0  0  0
    2.0329   -0.1853   -3.8129 H   0  0  0  0  0  0  0  0  0  0  0  0
  5  6  2  0  0  0  0
  5  7  1  0  0  0  0
  2  3  1  0  0  0  0
  2  4  1  0  0  0  0
  2  5  1  0  0  0  0
  1  2  1  0  0  0  0
 16 17  2  0  0  0  0
 16 18  1  0  0  0  0
 14 15  1  0  0  0  0
 11 12  1  0  0  0  0
 11 13  1  0  0  0  0
 11 14  1  0  0  0  0
  9 10  1  0  0  0  0
  9 11  1  0  0  0  0
  9 16  1  0  0  0  0
  7  8  1  0  0  0  0
  7  9  1  0  0  0  0
 20 21  1  0  0  0  0
 20 22  1  0  0  0  0
 20 23  1  0  0  0  0
 18 19  1  0  0  0  0
 18 20  1  0  0  0  0
M  END
$$$$
default_name
  -OEChem-01062215323D

 23 22  0     1  0  0  0  0  0999 V2000
   -2.6721   -3.7279    0.7212 H   0  0  0  0  0  0  0  0  0  0  0  0
   -2.6561   -2.6819    0.4162 C   0  0  0  0  0  0  0  0  0  0  0  0
   -3.2401   -2.0889    1.1172 H   0  0  0  0  0  0  0  0  0  0  0  0
   -3.0671   -2.5859   -0.5858 H   0  0  0  0  0  0  0  0  0  0  0  0
   -1.2261   -2.1939    0.4202 C   0  0  0  0  0  0  0  0  0  0  0  0
   -0.3181   -2.9519    0.7312 O   0  0  0  0  0  0  0  0  0  0  0  0
   -1.0281   -0.9259    0.0662 N   0  0  0  0  0  0  0  0  0  0  0  0
   -1.8301   -0.3519   -0.1548 H   0  0  0  0  0  0  0  0  0  0  0  0
    0.2709   -0.2409    0.0912 C   0  0  1  0  0  0  0  0  0  0  0  0
    0.1966    0.6286    0.7448 H   0  0  0  0  0  0  0  0  0  0  0  0
    1.3432   -1.1756    0.6658 C   0  0  0  0  0  0  0  0  0  0  0  0
    2.2780   -0.6232    0.7750 H   0  0  0  0  0  0  0  0  0  0  0  0
    1.0279   -1.5321    1.6480 H   0  0  0  0  0  0  0  0  0  0  0  0
    1.5642   -2.2788   -0.1928 O   0  0  0  0  0  0  0  0  0  0  0  0
    2.3537   -2.7415    0.1079 H   0  0  0  0  0  0  0  0  0  0  0  0
    0.6491    0.2517   -1.3156 C   0  0  0  0  0  0  0  0  0  0  0  0
   -0.0742    1.0581   -1.9015 O   0  0  0  0  0  0  0  0  0  0  0  0
    1.7801   -0.2167   -1.8541 N   0  0  0  0  0  0  0  0  0  0  0  0
    2.2586   -0.9438   -1.3390 H   0  0  0  0  0  0  0  0  0  0  0  0
    2.2953    0.1628   -3.1681 C   0  0  0  0  0  0  0  0  0  0  0  0
    2.2332    1.2462   -3.2909 H   0  0  0  0  0  0  0  0  0  0  0  0
    3.3346   -0.1509   -3.2697 H   0  0  0  0  0  0  0  0  0  0  0  0
    1.6960   -0.3119   -3.9478 H   0  0  0  0  0  0  0  0  0  0  0  0
  5  6  2  0  0  0  0
  5  7  1  0  0  0  0
  2  3  1  0  0  0  0
  2  4  1  0  0  0  0
  2  5  1  0  0  0  0
  1  2  1  0  0  0  0
 16 17  2  0  0  0  0
 16 18  1  0  0  0  0
 14 15  1  0  0  0  0
 11 12  1  0  0  0  0
 11 13  1  0  0  0  0
 11 14  1  0  0  0  0
  9 10  1  0  0  0  0
  9 11  1  0  0  0  0
  9 16  1  0  0  0  0
  7  8  1  0  0  0  0
  7  9  1  0  0  0  0
 20 21  1  0  0  0  0
 20 22  1  0  0  0  0
 20 23  1  0  0  0  0
 18 19  1  0  0  0  0
 18 20  1  0  0  0  0
M  END
$$$$
default_name
  -OEChem-01062215323D

 23 22  0     1  0  0  0  0  0999 V2000
   -2.6721   -3.7279    0.7212 H   0  0  0  0  0  0  0  0  0  0  0  0
   -2.6561   -2.6819    0.4162 C   0  0  0  0  0  0  0  0  0  0  0  0
   -3.2401   -2.0889    1.1172 H   0  0  0  0  0  0  0  0  0  0  0  0
   -3.0671   -2.5859   -0.5858 H   0  0  0  0  0  0  0  0  0  0  0  0
   -1.2261   -2.1939    0.4202 C   0  0  0  0  0  0  0  0  0  0  0  0
   -0.3181   -2.9519    0.7312 O   0  0  0  0  0  0  0  0  0  0  0  0
   -1.0281   -0.9259    0.0662 N   0  0  0  0  0  0  0  0  0  0  0  0
   -1.8301   -0.3519   -0.1548 H   0  0  0  0  0  0  0  0  0  0  0  0
    0.2709   -0.2409    0.0912 C   0  0  1  0  0  0  0  0  0  0  0  0
    0.1966    0.6286    0.7448 H   0  0  0  0  0  0  0  0  0  0  0  0
    1.3432   -1.1756    0.6658 C   0  0  0  0  0  0  0  0  0  0  0  0
    2.2780   -0.6232    0.7750 H   0  0  0  0  0  0  0  0  0  0  0  0
    1.0279   -1.5321    1.6480 H   0  0  0  0  0  0  0  0  0  0  0  0
    1.5642   -2.2788   -0.1928 O   0  0  0  0  0  0  0  0  0  0  0  0
    2.3537   -2.7415    0.1079 H   0  0  0  0  0  0  0  0  0  0  0  0
    0.6491    0.2517   -1.3156 C   0  0  0  0  0  0  0  0  0  0  0  0
    0.0980    1.2459   -1.7894 O   0  0  0  0  0  0  0  0  0  0  0  0
    1.5912   -0.4275   -1.9787 N   0  0  0  0  0  0  0  0  0  0  0  0
    1.9191   -1.2822   -1.5488 H   0  0  0  0  0  0  0  0  0  0  0  0
    2.0820   -0.0834   -3.3117 C   0  0  0  0  0  0  0  0  0  0  0  0
    2.2720    0.9905   -3.3700 H   0  0  0  0  0  0  0  0  0  0  0  0
    3.0052   -0.6234   -3.5237 H   0  0  0  0  0  0  0  0  0  0  0  0
    1.3295   -0.3459   -4.0582 H   0  0  0  0  0  0  0  0  0  0  0  0
  5  6  2  0  0  0  0
  5  7  1  0  0  0  0
  2  3  1  0  0  0  0
  2  4  1  0  0  0  0
  2  5  1  0  0  0  0
  1  2  1  0  0  0  0
 16 17  2  0  0  0  0
 16 18  1  0  0  0  0
 14 15  1  0  0  0  0
 11 12  1  0  0  0  0
 11 13  1  0  0  0  0
 11 14  1  0  0  0  0
  9 10  1  0  0  0  0
  9 11  1  0  0  0  0
  9 16  1  0  0  0  0
  7  8  1  0  0  0  0
  7  9  1  0  0  0  0
 20 21  1  0  0  0  0
 20 22  1  0  0  0  0
 20 23  1  0  0  0  0
 18 19  1  0  0  0  0
 18 20  1  0  0  0  0
M  END
$$$$
default_name
  -OEChem-01062215323D

 23 22  0     1  0  0  0  0  0999 V2000
   -2.6721   -3.7279    0.7212 H   0  0  0  0  0  0  0  0  0  0  0  0
   -2.6561   -2.6819    0.4162 C   0  0  0  0  0  0  0  0  0  0  0  0
   -3.2401   -2.0889    1.1172 H   0  0  0  0  0  0  0  0  0  0  0  0
   -3.0671   -2.5859   -0.5858 H   0  0  0  0  0  0  0  0  0  0  0  0
   -1.2261   -2.1939    0.4202 C   0  0  0  0  0  0  0  0  0  0  0  0
   -0.3181   -2.9519    0.7312 O   0  0  0  0  0  0  0  0  0  0  0  0
   -1.0281   -0.9259    0.0662 N   0  0  0  0  0  0  0  0  0  0  0  0
   -1.8301   -0.3519   -0.1548 H   0  0  0  0  0  0  0  0  0  0  0  0
    0.2709   -0.2409    0.0912 C   0  0  1  0  0  0  0  0  0  0  0  0
    0.1966    0.6286    0.7448 H   0  0  0  0  0  0  0  0  0  0  0  0
    1.3432   -1.1756    0.6658 C   0  0  0  0  0  0  0  0  0  0  0  0
    2.2780   -0.6232    0.7750 H   0  0  0  0  0  0  0  0  0  0  0  0
    1.0279   -1.5321    1.6480 H   0  0  0  0  0  0  0  0  0  0  0  0
    1.5642   -2.2788   -0.1928 O   0  0  0  0  0  0  0  0  0  0  0  0
    2.3537   -2.7415    0.1079 H   0  0  0  0  0  0  0  0  0  0  0  0
    0.6491    0.2517   -1.3156 C   0  0  0  0  0  0  0  0  0  0  0  0
    0.3180    1.3795   -1.6835 O   0  0  0  0  0  0  0  0  0  0  0  0
    1.3485   -0.5784   -2.0968 N   0  0  0  0  0  0  0  0  0  0  0  0
    1.4935   -1.5154   -1.7449 H   0  0  0  0  0  0  0  0  0  0  0  0
    1.8057   -0.2615   -3.4484 C   0  0  0  0  0  0  0  0  0  0  0  0
    2.2424    0.7393   -3.4659 H   0  0  0  0  0  0  0  0  0  0  0  0
    2.5541   -0.9855   -3.7718 H   0  0  0  0  0  0  0  0  0  0  0  0
    0.9582   -0.2850   -4.1367 H   0  0  0  0  0  0  0  0  0  0  0  0
  5  6  2  0  0  0  0
  5  7  1  0  0  0  0
  2  3  1  0  0  0  0
  2  4  1  0  0  0  0
  2  5  1  0  0  0  0
  1  2  1  0  0  0  0
 16 17  2  0  0  0  0
 16 18  1  0  0  0  0
 14 15  1  0  0  0  0
 11 12  1  0  0  0  0
 11 13  1  0  0  0  0
 11 14  1  0  0  0  0
  9 10  1  0  0  0  0
  9 11  1  0  0  0  0
  9 16  1  0  0  0  0
  7  8  1  0  0  0  0
  7  9  1  0  0  0  0
 20 21  1  0  0  0  0
 20 22  1  0  0  0  0
 20 23  1  0  0  0  0
 18 19  1  0  0  0  0
 18 20  1  0  0  0  0
M  END
$$$$
default_name
  -OEChem-01062215323D

 23 22  0     1  0  0  0  0  0999 V2000
   -2.6721   -3.7279    0.7212 H   0  0  0  0  0  0  0  0  0  0  0  0
   -2.6561   -2.6819    0.4162 C   0  0  0  0  0  0  0  0  0  0  0  0
   -3.2401   -2.0889    1.1172 H   0  0  0  0  0  0  0  0  0  0  0  0
   -3.0671   -2.5859   -0.5858 H   0  0  0  0  0  0  0  0  0  0  0  0
   -1.2261   -2.1939    0.4202 C   0  0  0  0  0  0  0  0  0  0  0  0
   -0.3181   -2.9519    0.7312 O   0  0  0  0  0  0  0  0  0  0  0  0
   -1.0281   -0.9259    0.0662 N   0  0  0  0  0  0  0  0  0  0  0  0
   -1.8301   -0.3519   -0.1548 H   0  0  0  0  0  0  0  0  0  0  0  0
    0.2709   -0.2409    0.0912 C   0  0  1  0  0  0  0  0  0  0  0  0
    0.1966    0.6286    0.7448 H   0  0  0  0  0  0  0  0  0  0  0  0
    1.3432   -1.1756    0.6658 C   0  0  0  0  0  0  0  0  0  0  0  0
    2.2780   -0.6232    0.7750 H   0  0  0  0  0  0  0  0  0  0  0  0
    1.0279   -1.5321    1.6480 H   0  0  0  0  0  0  0  0  0  0  0  0
    1.5642   -2.2788   -0.1928 O   0  0  0  0  0  0  0  0  0  0  0  0
    2.3537   -2.7415    0.1079 H   0  0  0  0  0  0  0  0  0  0  0  0
    0.6491    0.2517   -1.3156 C   0  0  0  0  0  0  0  0  0  0  0  0
    0.5710    1.4496   -1.5909 O   0  0  0  0  0  0  0  0  0  0  0  0
    1.0686   -0.6592   -2.2004 N   0  0  0  0  0  0  0  0  0  0  0  0
    1.0111   -1.6275   -1.9138 H   0  0  0  0  0  0  0  0  0  0  0  0
    1.4853   -0.3595   -3.5688 C   0  0  0  0  0  0  0  0  0  0  0  0
    2.1464    0.5097   -3.5721 H   0  0  0  0  0  0  0  0  0  0  0  0
    2.0121   -1.2128   -3.9971 H   0  0  0  0  0  0  0  0  0  0  0  0
    0.6076   -0.1332   -4.1778 H   0  0  0  0  0  0  0  0  0  0  0  0
  5  6  2  0  0  0  0
  5  7  1  0  0  0  0
  2  3  1  0  0  0  0
  2  4  1  0  0  0  0
  2  5  1  0  0  0  0
  1  2  1  0  0  0  0
 16 17  2  0  0  0  0
 16 18  1  0  0  0  0
 14 15  1  0  0  0  0
 11 12  1  0  0  0  0
 11 13  1  0  0  0  0
 11 14  1  0  0  0  0
  9 10  1  0  0  0  0
  9 11  1  0  0  0  0
  9 16  1  0  0  0  0
  7  8  1  0  0  0  0
  7  9  1  0  0  0  0
 20 21  1  0  0  0  0
 20 22  1  0  0  0  0
 20 23  1  0  0  0  0
 18 19  1  0  0  0  0
 18 20  1  0  0  0  0
M  END
$$$$
default_name
  -OEChem-01062215323D

 23 22  0     1  0  0  0  0  0999 V2000
   -2.6721   -3.7279    0.7212 H   0  0  0  0  0  0  0  0  0  0  0  0
   -2.6561   -2.6819    0.4162 C   0  0  0  0  0  0  0  0  0  0  0  0
   -3.2401   -2.0889    1.1172 H   0  0  0  0  0  0  0  0  0  0  0  0
   -3.0671   -2.5859   -0.5858 H   0  0  0  0  0  0  0  0  0  0  0  0
   -1.2261   -2.1939    0.4202 C   0  0  0  0  0  0  0  0  0  0  0  0
   -0.3181   -2.9519    0.7312 O   0  0  0  0  0  0  0  0  0  0  0  0
   -1.0281   -0.9259    0.0662 N   0  0  0  0  0  0  0  0  0  0  0  0
   -1.8301   -0.3519   -0.1548 H   0  0  0  0  0  0  0  0  0  0  0  0
    0.2709   -0.2409    0.0912 C   0  0  1  0  0  0  0  0  0  0  0  0
    0.1966    0.6286    0.7448 H   0  0  0  0  0  0  0  0  0  0  0  0
    1.3432   -1.1756    0.6658 C   0  0  0  0  0  0  0  0  0  0  0  0
    2.2780   -0.6232    0.7750 H   0  0  0  0  0  0  0  0  0  0  0  0
    1.0279   -1.5321    1.6480 H   0  0  0  0  0  0  0  0  0  0  0  0
    1.5642   -2.2788   -0.1928 O   0  0  0  0  0  0  0  0  0  0  0  0
    2.3537   -2.7415    0.1079 H   0  0  0  0  0  0  0  0  0  0  0  0
    0.6491    0.2517   -1.3156 C   0  0  0  0  0  0  0  0  0  0  0  0
    0.8396    1.4515   -1.5180 O   0  0  0  0  0  0  0  0  0  0  0  0
    0.7704   -0.6644   -2.2823 N   0  0  0  0  0  0  0  0  0  0  0  0
    0.5045   -1.6107   -2.0442 H   0  0  0  0  0  0  0  0  0  0  0  0
    1.1426   -0.3706   -3.6649 C   0  0  0  0  0  0  0  0  0  0  0  0
    1.9904    0.3175   -3.6813 H   0  0  0  0  0  0  0  0  0  0  0  0
    1.4160   -1.2896   -4.1842 H   0  0  0  0  0  0  0  0  0  0  0  0
    0.3014    0.0991   -4.1788 H   0  0  0  0  0  0  0  0  0  0  0  0
  5  6  2  0  0  0  0
  5  7  1  0  0  0  0
  2  3  1  0  0  0  0
  2  4  1  0  0  0  0
  2  5  1  0  0  0  0
  1  2  1  0  0  0  0
 16 17  2  0  0  0  0
 16 18  1  0  0  0  0
 14 15  1  0  0  0  0
 11 12  1  0  0  0  0
 11 13  1  0  0  0  0
 11 14  1  0  0  0  0
  9 10  1  0  0  0  0
  9 11  1  0  0  0  0
  9 16  1  0  0  0  0
  7  8  1  0  0  0  0
  7  9  1  0  0  0  0
 20 21  1  0  0  0  0
 20 22  1  0  0  0  0
 20 23  1  0  0  0  0
 18 19  1  0  0  0  0
 18 20  1  0  0  0  0
M  END
$$$$
default_name
  -OEChem-01062215323D

 23 22  0     1  0  0  0  0  0999 V2000
   -2.6721   -3.7279    0.7212 H   0  0  0  0  0  0  0  0  0  0  0  0
   -2.6561   -2.6819    0.4162 C   0  0  0  0  0  0  0  0  0  0  0  0
   -3.2401   -2.0889    1.1172 H   0  0  0  0  0  0  0  0  0  0  0  0
   -3.0671   -2.5859   -0.5858 H   0  0  0  0  0  0  0  0  0  0  0  0
   -1.2261   -2.1939    0.4202 C   0  0  0  0  0  0  0  0  0  0  0  0
   -0.3181   -2.9519    0.7312 O   0  0  0  0  0  0  0  0  0  0  0  0
   -1.0281   -0.9259    0.0662 N   0  0  0  0  0  0  0  0  0  0  0  0
   -1.8301   -0.3519   -0.1548 H   0  0  0  0  0  0  0  0  0  0  0  0
    0.2709   -0.2409    0.0912 C   0  0  1  0  0  0  0  0  0  0  0  0
    0.1966    0.6286    0.7448 H   0  0  0  0  0  0  0  0  0  0  0  0
    1.3432   -1.1756    0.6658 C   0  0  0  0  0  0  0  0  0  0  0  0
    2.2780   -0.6232    0.7750 H   0  0  0  0  0  0  0  0  0  0  0  0
    1.0279   -1.5321    1.6480 H   0  0  0  0  0  0  0  0  0  0  0  0
    1.5642   -2.2788   -0.1928 O   0  0  0  0  0  0  0  0  0  0  0  0
    2.3537   -2.7415    0.1079 H   0  0  0  0  0  0  0  0  0  0  0  0
    0.6491    0.2517   -1.3156 C   0  0  0  0  0  0  0  0  0  0  0  0
    1.1056    1.3851   -1.4698 O   0  0  0  0  0  0  0  0  0  0  0  0
    0.4744   -0.5936   -2.3371 N   0  0  0  0  0  0  0  0  0  0  0  0
    0.0083   -1.4662   -2.1270 H   0  0  0  0  0  0  0  0  0  0  0  0
    0.8010   -0.2941   -3.7299 C   0  0  0  0  0  0  0  0  0  0  0  0
    1.7853    0.1758   -3.7861 H   0  0  0  0  0  0  0  0  0  0  0  0
    0.8066   -1.2107   -4.3205 H   0  0  0  0  0  0  0  0  0  0  0  0
    0.0606    0.3960   -4.1396 H   0  0  0  0  0  0  0  0  0  0  0  0
  5  6  2  0  0  0  0
  5  7  1  0  0  0  0
  2  3  1  0  0  0  0
  2  4  1  0  0  0  0
  2  5  1  0  0  0  0
  1  2  1  0  0  0  0
 16 17  2  0  0  0  0
 16 18  1  0  0  0  0
 14 15  1  0  0  0  0
 11 12  1  0  0  0  0
 11 13  1  0  0  0  0
 11 14  1  0  0  0  0
  9 10  1  0  0  0  0
  9 11  1  0  0  0  0
  9 16  1  0  0  0  0
  7  8  1  0  0  0  0
  7  9  1  0  0  0  0
 20 21  1  0  0  0  0
 20 22  1  0  0  0  0
 20 23  1  0  0  0  0
 18 19  1  0  0  0  0
 18 20  1  0  0  0  0
M  END
$$$$
default_name
  -OEChem-01062215323D

 23 22  0     1  0  0  0  0  0999 V2000
   -2.6721   -3.7279    0.7212 H   0  0  0  0  0  0  0  0  0  0  0  0
   -2.6561   -2.6819    0.4162 C   0  0  0  0  0  0  0  0  0  0  0  0
   -3.2401   -2.0889    1.1172 H   0  0  0  0  0  0  0  0  0  0  0  0
   -3.0671   -2.5859   -0.5858 H   0  0  0  0  0  0  0  0  0  0  0  0
   -1.2261   -2.1939    0.4202 C   0  0  0  0  0  0  0  0  0  0  0  0
   -0.3181   -2.9519    0.7312 O   0  0  0  0  0  0  0  0  0  0  0  0
   -1.0281   -0.9259    0.0662 N   0  0  0  0  0  0  0  0  0  0  0  0
   -1.8301   -0.3519   -0.1548 H   0  0  0  0  0  0  0  0  0  0  0  0
    0.2709   -0.2409    0.0912 C   0  0  1  0  0  0  0  0  0  0  0  0
    0.1966    0.6286    0.7448 H   0  0  0  0  0  0  0  0  0  0  0  0
    1.3432   -1.1756    0.6658 C   0  0  0  0  0  0  0  0  0  0  0  0
    2.2780   -0.6232    0.7750 H   0  0  0  0  0  0  0  0  0  0  0  0
    1.0279   -1.5321    1.6480 H   0  0  0  0  0  0  0  0  0  0  0  0
    1.5642   -2.2788   -0.1928 O   0  0  0  0  0  0  0  0  0  0  0  0
    2.3537   -2.7415    0.1079 H   0  0  0  0  0  0  0  0  0  0  0  0
    0.6491    0.2517   -1.3156 C   0  0  0  0  0  0  0  0  0  0  0  0
    1.3508    1.2550   -1.4494 O   0  0  0  0  0  0  0  0  0  0  0  0
    0.2007   -0.4516   -2.3610 N   0  0  0  0  0  0  0  0  0  0  0  0
   -0.4436   -1.2039   -2.1566 H   0  0  0  0  0  0  0  0  0  0  0  0
    0.4838   -0.1352   -3.7595 C   0  0  0  0  0  0  0  0  0  0  0  0
    1.5448    0.0941   -3.8794 H   0  0  0  0  0  0  0  0  0  0  0  0
    0.2252   -0.9816   -4.3965 H   0  0  0  0  0  0  0  0  0  0  0  0
   -0.0985    0.7374   -4.0628 H   0  0  0  0  0  0  0  0  0  0  0  0
  5  6  2  0  0  0  0
  5  7  1  0  0  0  0
  2  3  1  0  0  0  0
  2  4  1  0  0  0  0
  2  5  1  0  0  0  0
  1  2  1  0  0  0  0
 16 17  2  0  0  0  0
 16 18  1  0  0  0  0
 14 15  1  0  0  0  0
 11 12  1  0  0  0  0
 11 13  1  0  0  0  0
 11 14  1  0  0  0  0
  9 10  1  0  0  0  0
  9 11  1  0  0  0  0
  9 16  1  0  0  0  0
  7  8  1  0  0  0  0
  7  9  1  0  0  0  0
 20 21  1  0  0  0  0
 20 22  1  0  0  0  0
 20 23  1  0  0  0  0
 18 19  1  0  0  0  0
 18 20  1  0  0  0  0
M  END
$$$$
default_name
  -OEChem-01062215323D

 23 22  0     1  0  0  0  0  0999 V2000
   -2.6721   -3.7279    0.7212 H   0  0  0  0  0  0  0  0  0  0  0  0
   -2.6561   -2.6819    0.4162 C   0  0  0  0  0  0  0  0  0  0  0  0
   -3.2401   -2.0889    1.1172 H   0  0  0  0  0  0  0  0  0  0  0  0
   -3.0671   -2.5859   -0.5858 H   0  0  0  0  0  0  0  0  0  0  0  0
   -1.2261   -2.1939    0.4202 C   0  0  0  0  0  0  0  0  0  0  0  0
   -0.3181   -2.9519    0.7312 O   0  0  0  0  0  0  0  0  0  0  0  0
   -1.0281   -0.9259    0.0662 N   0  0  0  0  0  0  0  0  0  0  0  0
   -1.8301   -0.3519   -0.1548 H   0  0  0  0  0  0  0  0  0  0  0  0
    0.2709   -0.2409    0.0912 C   0  0  1  0  0  0  0  0  0  0  0  0
    0.1966    0.6286    0.7448 H   0  0  0  0  0  0  0  0  0  0  0  0
    1.3432   -1.1756    0.6658 C   0  0  0  0  0  0  0  0  0  0  0  0
    2.2780   -0.6232    0.7750 H   0  0  0  0  0  0  0  0  0  0  0  0
    1.0279   -1.5321    1.6480 H   0  0  0  0  0  0  0  0  0  0  0  0
    1.5642   -2.2788   -0.1928 O   0  0  0  0  0  0  0  0  0  0  0  0
    2.3537   -2.7415    0.1079 H   0  0  0  0  0  0  0  0  0  0  0  0
    0.6491    0.2517   -1.3156 C   0  0  0  0  0  0  0  0  0  0  0  0
    1.5585    1.0699   -1.4584 O   0  0  0  0  0  0  0  0  0  0  0  0
   -0.0320   -0.2482   -2.3523 N   0  0  0  0  0  0  0  0  0  0  0  0
   -0.8204   -0.8417   -2.1311 H   0  0  0  0  0  0  0  0  0  0  0  0
    0.2126    0.0953   -3.7518 C   0  0  0  0  0  0  0  0  0  0  0  0
    1.2855    0.0780   -3.9547 H   0  0  0  0  0  0  0  0  0  0  0  0
   -0.2883   -0.6177   -4.4072 H   0  0  0  0  0  0  0  0  0  0  0  0
   -0.1650    1.0998   -3.9538 H   0  0  0  0  0  0  0  0  0  0  0  0
  5  6  2  0  0  0  0
  5  7  1  0  0  0  0
  2  3  1  0  0  0  0
  2  4  1  0  0  0  0
  2  5  1  0  0  0  0
  1  2  1  0  0  0  0
 16 17  2  0  0  0  0
 16 18  1  0  0  0  0
 14 15  1  0  0  0  0
 11 12  1  0  0  0  0
 11 13  1  0  0  0  0
 11 14  1  0  0  0  0
  9 10  1  0  0  0  0
  9 11  1  0  0  0  0
  9 16  1  0  0  0  0
  7  8  1  0  0  0  0
  7  9  1  0  0  0  0
 20 21  1  0  0  0  0
 20 22  1  0  0  0  0
 20 23  1  0  0  0  0
 18 19  1  0  0  0  0
 18 20  1  0  0  0  0
M  END
$$$$
default_name
  -OEChem-01062215323D

 23 22  0     1  0  0  0  0  0999 V2000
   -2.6721   -3.7279    0.7212 H   0  0  0  0  0  0  0  0  0  0  0  0
   -2.6561   -2.6819    0.4162 C   0  0  0  0  0  0  0  0  0  0  0  0
   -3.2401   -2.0889    1.1172 H   0  0  0  0  0  0  0  0  0  0  0  0
   -3.0671   -2.5859   -0.5858 H   0  0  0  0  0  0  0  0  0  0  0  0
   -1.2261   -2.1939    0.4202 C   0  0  0  0  0  0  0  0  0  0  0  0
   -0.3181   -2.9519    0.7312 O   0  0  0  0  0  0  0  0  0  0  0  0
   -1.0281   -0.9259    0.0662 N   0  0  0  0  0  0  0  0  0  0  0  0
   -1.8301   -0.3519   -0.1548 H   0  0  0  0  0  0  0  0  0  0  0  0
    0.2709   -0.2409    0.0912 C   0  0  1  0  0  0  0  0  0  0  0  0
    0.1966    0.6286    0.7448 H   0  0  0  0  0  0  0  0  0  0  0  0
    1.3432   -1.1756    0.6658 C   0  0  0  0  0  0  0  0  0  0  0  0
    2.2780   -0.6232    0.7750 H   0  0  0  0  0  0  0  0  0  0  0  0
    1.0279   -1.5321    1.6480 H   0  0  0  0  0  0  0  0  0  0  0  0
    1.5642   -2.2788   -0.1928 O   0  0  0  0  0  0  0  0  0  0  0  0
    2.3537   -2.7415    0.1079 H   0  0  0  0  0  0  0  0  0  0  0  0
    0.6491    0.2517   -1.3156 C   0  0  0  0  0  0  0  0  0  0  0  0
    1.7145    0.8425   -1.4961 O   0  0  0  0  0  0  0  0  0  0  0  0
   -0.2079    0.0029   -2.3117 N   0  0  0  0  0  0  0  0  0  0  0  0
   -1.0966   -0.4042   -2.0522 H   0  0  0  0  0  0  0  0  0  0  0  0
    0.0058    0.3817   -3.7071 C   0  0  0  0  0  0  0  0  0  0  0  0
    1.0250    0.1287   -4.0070 H   0  0  0  0  0  0  0  0  0  0  0  0
   -0.6991   -0.1440   -4.3518 H   0  0  0  0  0  0  0  0  0  0  0  0
   -0.1343    1.4587   -3.8199 H   0  0  0  0  0  0  0  0  0  0  0  0
  5  6  2  0  0  0  0
  5  7  1  0  0  0  0
  2  3  1  0  0  0  0
  2  4  1  0  0  0  0
  2  5  1  0  0  0  0
  1  2  1  0  0  0  0
 16 17  2  0  0  0  0
 16 18  1  0  0  0  0
 14 15  1  0  0  0  0
 11 12  1  0  0  0  0
 11 13  1  0  0  0  0
 11 14  1  0  0  0  0
  9 10  1  0  0  0  0
  9 11  1  0  0  0  0
  9 16  1  0  0  0  0
  7  8  1  0  0  0  0
  7  9  1  0  0  0  0
 20 21  1  0  0  0  0
 20 22  1  0  0  0  0
 20 23  1  0  0  0  0
 18 19  1  0  0  0  0
 18 20  1  0  0  0  0
M  END
$$$$
default_name
  -OEChem-01062215323D

 23 22  0     1  0  0  0  0  0999 V2000
   -2.6721   -3.7279    0.7212 H   0  0  0  0  0  0  0  0  0  0  0  0
   -2.6561   -2.6819    0.4162 C   0  0  0  0  0  0  0  0  0  0  0  0
   -3.2401   -2.0889    1.1172 H   0  0  0  0  0  0  0  0  0  0  0  0
   -3.0671   -2.5859   -0.5858 H   0  0  0  0  0  0  0  0  0  0  0  0
   -1.2261   -2.1939    0.4202 C   0  0  0  0  0  0  0  0  0  0  0  0
   -0.3181   -2.9519    0.7312 O   0  0  0  0  0  0  0  0  0  0  0  0
   -1.0281   -0.9259    0.0662 N   0  0  0  0  0  0  0  0  0  0  0  0
   -1.8301   -0.3519   -0.1548 H   0  0  0  0  0  0  0  0  0  0  0  0
    0.2709   -0.2409    0.0912 C   0  0  1  0  0  0  0  0  0  0  0  0
    0.1966    0.6286    0.7448 H   0  0  0  0  0  0  0  0  0  0  0  0
    1.3432   -1.1756    0.6658 C   0  0  0  0  0  0  0  0  0  0  0  0
    2.2780   -0.6232    0.7750 H   0  0  0  0  0  0  0  0  0  0  0  0
    1.0279   -1.5321    1.6480 H   0  0  0  0  0  0  0  0  0  0  0  0
    1.5642   -2.2788   -0.1928 O   0  0  0  0  0  0  0  0  0  0  0  0
    2.3537   -2.7415    0.1079 H   0  0  0  0  0  0  0  0  0  0  0  0
    0.6491    0.2517   -1.3156 C   0  0  0  0  0  0  0  0  0  0  0  0
    1.8083    0.5883   -1.5598 O   0  0  0  0  0  0  0  0  0  0  0  0
   -0.3150    0.2844   -2.2419 N   0  0  0  0  0  0  0  0  0  0  0  0
   -1.2532    0.0787   -1.9252 H   0  0  0  0  0  0  0  0  0  0  0  0
   -0.1224    0.7044   -3.6285 C   0  0  0  0  0  0  0  0  0  0  0  0
    0.7810    0.2427   -4.0327 H   0  0  0  0  0  0  0  0  0  0  0  0
   -0.9791    0.4073   -4.2340 H   0  0  0  0  0  0  0  0  0  0  0  0
   -0.0086    1.7897   -3.6702 H   0  0  0  0  0  0  0  0  0  0  0  0
  5  6  2  0  0  0  0
  5  7  1  0  0  0  0
  2  3  1  0  0  0  0
  2  4  1  0  0  0  0
  2  5  1  0  0  0  0
  1  2  1  0  0  0  0
 16 17  2  0  0  0  0
 16 18  1  0  0  0  0
 14 15  1  0  0  0  0
 11 12  1  0  0  0  0
 11 13  1  0  0  0  0
 11 14  1  0  0  0  0
  9 10  1  0  0  0  0
  9 11  1  0  0  0  0
  9 16  1  0  0  0  0
  7  8  1  0  0  0  0
  7  9  1  0  0  0  0
 20 21  1  0  0  0  0
 20 22  1  0  0  0  0
 20 23  1  0  0  0  0
 18 19  1  0  0  0  0
 18 20  1  0  0  0  0
M  END
$$$$
default_name
  -OEChem-01062215323D

 23 22  0     1  0  0  0  0  0999 V2000
   -2.6721   -3.7279    0.7212 H   0  0  0  0  0  0  0  0  0  0  0  0
   -2.6561   -2.6819    0.4162 C   0  0  0  0  0  0  0  0  0  0  0  0
   -3.2401   -2.0889    1.1172 H   0  0  0  0  0  0  0  0  0  0  0  0
   -3.0671   -2.5859   -0.5858 H   0  0  0  0  0  0  0  0  0  0  0  0
   -1.2261   -2.1939    0.4202 C   0  0  0  0  0  0  0  0  0  0  0  0
   -0.3181   -2.9519    0.7312 O   0  0  0  0  0  0  0  0  0  0  0  0
   -1.0281   -0.9259    0.0662 N   0  0  0  0  0  0  0  0  0  0  0  0
   -1.8301   -0.3519   -0.1548 H   0  0  0  0  0  0  0  0  0  0  0  0
    0.2709   -0.2409    0.0912 C   0  0  1  0  0  0  0  0  0  0  0  0
    0.1966    0.6286    0.7448 H   0  0  0  0  0  0  0  0  0  0  0  0
    1.3432   -1.1756    0.6658 C   0  0  0  0  0  0  0  0  0  0  0  0
    2.2780   -0.6232    0.7750 H   0  0  0  0  0  0  0  0  0  0  0  0
    1.0279   -1.5321    1.6480 H   0  0  0  0  0  0  0  0  0  0  0  0
    1.5642   -2.2788   -0.1928 O   0  0  0  0  0  0  0  0  0  0  0  0
    2.3537   -2.7415    0.1079 H   0  0  0  0  0  0  0  0  0  0  0  0
    0.6491    0.2517   -1.3156 C   0  0  0  0  0  0  0  0  0  0  0  0
    1.8334    0.3247   -1.6454 O   0  0  0  0  0  0  0  0  0  0  0  0
   -0.3460    0.5773   -2.1477 N   0  0  0  0  0  0  0  0  0  0  0  0
   -1.2796    0.5742   -1.7588 H   0  0  0  0  0  0  0  0  0  0  0  0
   -0.1633    1.0415   -3.5215 C   0  0  0  0  0  0  0  0  0  0  0  0
    0.5702    0.4122   -4.0300 H   0  0  0  0  0  0  0  0  0  0  0  0
   -1.1094    0.9986   -4.0620 H   0  0  0  0  0  0  0  0  0  0  0  0
    0.2035    2.0700   -3.5150 H   0  0  0  0  0  0  0  0  0  0  0  0
  5  6  2  0  0  0  0
  5  7  1  0  0  0  0
  2  3  1  0  0  0  0
  2  4  1  0  0  0  0
  2  5  1  0  0  0  0
  1  2  1  0  0  0  0
 16 17  2  0  0  0  0
 16 18  1  0  0  0  0
 14 15  1  0  0  0  0
 11 12  1  0  0  0  0
 11 13  1  0  0  0  0
 11 14  1  0  0  0  0
  9 10  1  0  0  0  0
  9 11  1  0  0  0  0
  9 16  1  0  0  0  0
  7  8  1  0  0  0  0
  7  9  1  0  0  0  0
 20 21  1  0  0  0  0
 20 22  1  0  0  0  0
 20 23  1  0  0  0  0
 18 19  1  0  0  0  0
 18 20  1  0  0  0  0
M  END
$$$$
default_name
  -OEChem-01062215323D

 23 22  0     1  0  0  0  0  0999 V2000
   -2.6721   -3.7279    0.7212 H   0  0  0  0  0  0  0  0  0  0  0  0
   -2.6561   -2.6819    0.4162 C   0  0  0  0  0  0  0  0  0  0  0  0
   -3.2401   -2.0889    1.1172 H   0  0  0  0  0  0  0  0  0  0  0  0
   -3.0671   -2.5859   -0.5858 H   0  0  0  0  0  0  0  0  0  0  0  0
   -1.2261   -2.1939    0.4202 C   0  0  0  0  0  0  0  0  0  0  0  0
   -0.3181   -2.9519    0.7312 O   0  0  0  0  0  0  0  0  0  0  0  0
   -1.0281   -0.9259    0.0662 N   0  0  0  0  0  0  0  0  0  0  0  0
   -1.8301   -0.3519   -0.1548 H   0  0  0  0  0  0  0  0  0  0  0  0
    0.2709   -0.2409    0.0912 C   0  0  1  0  0  0  0  0  0  0  0  0
    0.1966    0.6286    0.7448 H   0  0  0  0  0  0  0  0  0  0  0  0
    1.3432   -1.1756    0.6658 C   0  0  0  0  0  0  0  0  0  0  0  0
    2.2780   -0.6232    0.7750 H   0  0  0  0  0  0  0  0  0  0  0  0
    1.0279   -1.5321    1.6480 H   0  0  0  0  0  0  0  0  0  0  0  0
    1.5642   -2.2788   -0.1928 O   0  0  0  0  0  0  0  0  0  0  0  0
    2.3537   -2.7415    0.1079 H   0  0  0  0  0  0  0  0  0  0  0  0
    0.6491    0.2517   -1.3156 C   0  0  0  0  0  0  0  0  0  0  0  0
    1.7882    0.0695   -1.7469 O   0  0  0  0  0  0  0  0  0  0  0  0
   -0.2988    0.8616   -2.0354 N   0  0  0  0  0  0  0  0  0  0  0  0
   -1.1740    1.0485   -1.5643 H   0  0  0  0  0  0  0  0  0  0  0  0
   -0.1142    1.3700   -3.3933 C   0  0  0  0  0  0  0  0  0  0  0  0
    0.4069    0.6257   -3.9992 H   0  0  0  0  0  0  0  0  0  0  0  0
   -1.0809    1.5896   -3.8474 H   0  0  0  0  0  0  0  0  0  0  0  0
    0.4877    2.2807   -3.3648 H   0  0  0  0  0  0  0  0  0  0  0  0
  5  6  2  0  0  0  0
  5  7  1  0  0  0  0
  2  3  1  0  0  0  0
  2  4  1  0  0  0  0
  2  5  1  0  0  0  0
  1  2  1  0  0  0  0
 16 17  2  0  0  0  0
 16 18  1  0  0  0  0
 14 15  1  0  0  0  0
 11 12  1  0  0  0  0
 11 13  1  0  0  0  0
 11 14  1  0  0  0  0
  9 10  1  0  0  0  0
  9 11  1  0  0  0  0
  9 16  1  0  0  0  0
  7  8  1  0  0  0  0
  7  9  1  0  0  0  0
 20 21  1  0  0  0  0
 20 22  1  0  0  0  0
 20 23  1  0  0  0  0
 18 19  1  0  0  0  0
 18 20  1  0  0  0  0
M  END
$$$$
default_name
  -OEChem-01062215323D

 23 22  0     1  0  0  0  0  0999 V2000
   -2.6721   -3.7279    0.7212 H   0  0  0  0  0  0  0  0  0  0  0  0
   -2.6561   -2.6819    0.4162 C   0  0  0  0  0  0  0  0  0  0  0  0
   -3.2401   -2.0889    1.1172 H   0  0  0  0  0  0  0  0  0  0  0  0
   -3.0671   -2.5859   -0.5858 H   0  0  0  0  0  0  0  0  0  0  0  0
   -1.2261   -2.1939    0.4202 C   0  0  0  0  0  0  0  0  0  0  0  0
   -0.3181   -2.9519    0.7312 O   0  0  0  0  0  0  0  0  0  0  0  0
   -1.0281   -0.9259    0.0662 N   0  0  0  0  0  0  0  0  0  0  0  0
   -1.8301   -0.3519   -0.1548 H   0  0  0  0  0  0  0  0  0  0  0  0
    0.2709   -0.2409    0.0912 C   0  0  1  0  0  0  0  0  0  0  0  0
    0.1966    0.6286    0.7448 H   0  0  0  0  0  0  0  0  0  0  0  0
    1.3432   -1.1756    0.6658 C   0  0  0  0  0  0  0  0  0  0  0  0
    2.2780   -0.6232    0.7750 H   0  0  0  0  0  0  0  0  0  0  0  0
    1.0279   -1.5321    1.6480 H   0  0  0  0  0  0  0  0  0  0  0  0
    1.5642   -2.2788   -0.1928 O   0  0  0  0  0  0  0  0  0  0  0  0
    2.3537   -2.7415    0.1079 H   0  0  0  0  0  0  0  0  0  0  0  0
    0.6491    0.2517   -1.3156 C   0  0  0  0  0  0  0  0  0  0  0  0
    1.6756   -0.1598   -1.8575 O   0  0  0  0  0  0  0  0  0  0  0  0
   -0.1765    1.1178   -1.9129 N   0  0  0  0  0  0  0  0  0  0  0  0
   -0.9435    1.4692   -1.3550 H   0  0  0  0  0  0  0  0  0  0  0  0
    0.0217    1.6675   -3.2526 C   0  0  0  0  0  0  0  0  0  0  0  0
    0.3023    0.8686   -3.9423 H   0  0  0  0  0  0  0  0  0  0  0  0
   -0.8956    2.1401   -3.6048 H   0  0  0  0  0  0  0  0  0  0  0  0
    0.8246    2.4073   -3.2299 H   0  0  0  0  0  0  0  0  0  0  0  0
  5  6  2  0  0  0  0
  5  7  1  0  0  0  0
  2  3  1  0  0  0  0
  2  4  1  0  0  0  0
  2  5  1  0  0  0  0
  1  2  1  0  0  0  0
 16 17  2  0  0  0  0
 16 18  1  0  0  0  0
 14 15  1  0  0  0  0
 11 12  1  0  0  0  0
 11 13  1  0  0  0  0
 11 14  1  0  0  0  0
  9 10  1  0  0  0  0
  9 11  1  0  0  0  0
  9 16  1  0  0  0  0
  7  8  1  0  0  0  0
  7  9  1  0  0  0  0
 20 21  1  0  0  0  0
 20 22  1  0  0  0  0
 20 23  1  0  0  0  0
 18 19  1  0  0  0  0
 18 20  1  0  0  0  0
M  END
$$$$
default_name
  -OEChem-01062215323D

 23 22  0     1  0  0  0  0  0999 V2000
   -2.6721   -3.7279    0.7212 H   0  0  0  0  0  0  0  0  0  0  0  0
   -2.6561   -2.6819    0.4162 C   0  0  0  0  0  0  0  0  0  0  0  0
   -3.2401   -2.0889    1.1172 H   0  0  0  0  0  0  0  0  0  0  0  0
   -3.0671   -2.5859   -0.5858 H   0  0  0  0  0  0  0  0  0  0  0  0
   -1.2261   -2.1939    0.4202 C   0  0  0  0  0  0  0  0  0  0  0  0
   -0.3181   -2.9519    0.7312 O   0  0  0  0  0  0  0  0  0  0  0  0
   -1.0281   -0.9259    0.0662 N   0  0  0  0  0  0  0  0  0  0  0  0
   -1.8301   -0.3519   -0.1548 H   0  0  0  0  0  0  0  0  0  0  0  0
    0.2709   -0.2409    0.0912 C   0  0  1  0  0  0  0  0  0  0  0  0
    0.1966    0.6286    0.7448 H   0  0  0  0  0  0  0  0  0  0  0  0
    1.3432   -1.1756    0.6658 C   0  0  0  0  0  0  0  0  0  0  0  0
    2.2780   -0.6232    0.7750 H   0  0  0  0  0  0  0  0  0  0  0  0
    1.0279   -1.5321    1.6480 H   0  0  0  0  0  0  0  0  0  0  0  0
    1.5642   -2.2788   -0.1928 O   0  0  0  0  0  0  0  0  0  0  0  0
    2.3537   -2.7415    0.1079 H   0  0  0  0  0  0  0  0  0  0  0  0
    0.6491    0.2517   -1.3156 C   0  0  0  0  0  0  0  0  0  0  0  0
    1.5034   -0.3476   -1.9695 O   0  0  0  0  0  0  0  0  0  0  0  0
    0.0124    1.3286   -1.7883 N   0  0  0  0  0  0  0  0  0  0  0  0
   -0.6040    1.8077   -1.1452 H   0  0  0  0  0  0  0  0  0  0  0  0
    0.2351    1.9137   -3.1090 C   0  0  0  0  0  0  0  0  0  0  0  0
    0.2635    1.1243   -3.8631 H   0  0  0  0  0  0  0  0  0  0  0  0
   -0.5662    2.6126   -3.3508 H   0  0  0  0  0  0  0  0  0  0  0  0
    1.1911    2.4413   -3.1195 H   0  0  0  0  0  0  0  0  0  0  0  0
  5  6  2  0  0  0  0
  5  7  1  0  0  0  0
  2  3  1  0  0  0  0
  2  4  1  0  0  0  0
  2  5  1  0  0  0  0
  1  2  1  0  0  0  0
 16 17  2  0  0  0  0
 16 18  1  0  0  0  0
 14 15  1  0  0  0  0
 11 12  1  0  0  0  0
 11 13  1  0  0  0  0
 11 14  1  0  0  0  0
  9 10  1  0  0  0  0
  9 11  1  0  0  0  0
  9 16  1  0  0  0  0
  7  8  1  0  0  0  0
  7  9  1  0  0  0  0
 20 21  1  0  0  0  0
 20 22  1  0  0  0  0
 20 23  1  0  0  0  0
 18 19  1  0  0  0  0
 18 20  1  0  0  0  0
M  END
$$$$
default_name
  -OEChem-01062215323D

 23 22  0     1  0  0  0  0  0999 V2000
   -2.6721   -3.7279    0.7212 H   0  0  0  0  0  0  0  0  0  0  0  0
   -2.6561   -2.6819    0.4162 C   0  0  0  0  0  0  0  0  0  0  0  0
   -3.2401   -2.0889    1.1172 H   0  0  0  0  0  0  0  0  0  0  0  0
   -3.0671   -2.5859   -0.5858 H   0  0  0  0  0  0  0  0  0  0  0  0
   -1.2261   -2.1939    0.4202 C   0  0  0  0  0  0  0  0  0  0  0  0
   -0.3181   -2.9519    0.7312 O   0  0  0  0  0  0  0  0  0  0  0  0
   -1.0281   -0.9259    0.0662 N   0  0  0  0  0  0  0  0  0  0  0  0
   -1.8301   -0.3519   -0.1548 H   0  0  0  0  0  0  0  0  0  0  0  0
    0.2709   -0.2409    0.0912 C   0  0  1  0  0  0  0  0  0  0  0  0
    0.1966    0.6286    0.7448 H   0  0  0  0  0  0  0  0  0  0  0  0
    1.3432   -1.1756    0.6658 C   0  0  0  0  0  0  0  0  0  0  0  0
    2.2780   -0.6232    0.7750 H   0  0  0  0  0  0  0  0  0  0  0  0
    1.0279   -1.5321    1.6480 H   0  0  0  0  0  0  0  0  0  0  0  0
    1.5642   -2.2788   -0.1928 O   0  0  0  0  0  0  0  0  0  0  0  0
    2.3537   -2.7415    0.1079 H   0  0  0  0  0  0  0  0  0  0  0  0
    0.6491    0.2517   -1.3156 C   0  0  0  0  0  0  0  0  0  0  0  0
    1.2834   -0.4811   -2.0755 O   0  0  0  0  0  0  0  0  0  0  0  0
    0.2551    1.4796   -1.6702 N   0  0  0  0  0  0  0  0  0  0  0  0
   -0.1785    2.0409   -0.9492 H   0  0  0  0  0  0  0  0  0  0  0  0
    0.5114    2.0919   -2.9723 C   0  0  0  0  0  0  0  0  0  0  0  0
    0.2931    1.3755   -3.7672 H   0  0  0  0  0  0  0  0  0  0  0  0
   -0.1151    2.9748   -3.1027 H   0  0  0  0  0  0  0  0  0  0  0  0
    1.5623    2.3803   -3.0410 H   0  0  0  0  0  0  0  0  0  0  0  0
  5  6  2  0  0  0  0
  5  7  1  0  0  0  0
  2  3  1  0  0  0  0
  2  4  1  0  0  0  0
  2  5  1  0  0  0  0
  1  2  1  0  0  0  0
 16 17  2  0  0  0  0
 16 18  1  0  0  0  0
 14 15  1  0  0  0  0
 11 12  1  0  0  0  0
 11 13  1  0  0  0  0
 11 14  1  0  0  0  0
  9 10  1  0  0  0  0
  9 11  1  0  0  0  0
  9 16  1  0  0  0  0
  7  8  1  0  0  0  0
  7  9  1  0  0  0  0
 20 21  1  0  0  0  0
 20 22  1  0  0  0  0
 20 23  1  0  0  0  0
 18 19  1  0  0  0  0
 18 20  1  0  0  0  0
M  END
$$$$
default_name
  -OEChem-01062215323D

 23 22  0     1  0  0  0  0  0999 V2000
   -2.6721   -3.7279    0.7212 H   0  0  0  0  0  0  0  0  0  0  0  0
   -2.6561   -2.6819    0.4162 C   0  0  0  0  0  0  0  0  0  0  0  0
   -3.2401   -2.0889    1.1172 H   0  0  0  0  0  0  0  0  0  0  0  0
   -3.0671   -2.5859   -0.5858 H   0  0  0  0  0  0  0  0  0  0  0  0
   -1.2261   -2.1939    0.4202 C   0  0  0  0  0  0  0  0  0  0  0  0
   -0.3181   -2.9519    0.7312 O   0  0  0  0  0  0  0  0  0  0  0  0
   -1.0281   -0.9259    0.0662 N   0  0  0  0  0  0  0  0  0  0  0  0
   -1.8301   -0.3519   -0.1548 H   0  0  0  0  0  0  0  0  0  0  0  0
    0.2709   -0.2409    0.0912 C   0  0  1  0  0  0  0  0  0  0  0  0
    0.1966    0.6286    0.7448 H   0  0  0  0  0  0  0  0  0  0  0  0
    1.3432   -1.1756    0.6658 C   0  0  0  0  0  0  0  0  0  0  0  0
    2.2780   -0.6232    0.7750 H   0  0  0  0  0  0  0  0  0  0  0  0
    1.0279   -1.5321    1.6480 H   0  0  0  0  0  0  0  0  0  0  0  0
    1.5642   -2.2788   -0.1928 O   0  0  0  0  0  0  0  0  0  0  0  0
    2.3537   -2.7415    0.1079 H   0  0  0  0  0  0  0  0  0  0  0  0
    0.6491    0.2517   -1.3156 C   0  0  0  0  0  0  0  0  0  0  0  0
    1.0304   -0.5513   -2.1680 O   0  0  0  0  0  0  0  0  0  0  0  0
    0.5350    1.5604   -1.5666 N   0  0  0  0  0  0  0  0  0  0  0  0
    0.3040    2.1529   -0.7802 H   0  0  0  0  0  0  0  0  0  0  0  0
    0.8318    2.1898   -2.8519 C   0  0  0  0  0  0  0  0  0  0  0  0
    0.3891    1.6050   -3.6610 H   0  0  0  0  0  0  0  0  0  0  0  0
    0.4270    3.2020   -2.8774 H   0  0  0  0  0  0  0  0  0  0  0  0
    1.9130    2.2285   -2.9999 H   0  0  0  0  0  0  0  0  0  0  0  0
  5  6  2  0  0  0  0
  5  7  1  0  0  0  0
  2  3  1  0  0  0  0
  2  4  1  0  0  0  0
  2  5  1  0  0  0  0
  1  2  1  0  0  0  0
 16 17  2  0  0  0  0
 16 18  1  0  0  0  0
 14 15  1  0  0  0  0
 11 12  1  0  0  0  0
 11 13  1  0  0  0  0
 11 14  1  0  0  0  0
  9 10  1  0  0  0  0
  9 11  1  0  0  0  0
  9 16  1  0  0  0  0
  7  8  1  0  0  0  0
  7  9  1  0  0  0  0
 20 21  1  0  0  0  0
 20 22  1  0  0  0  0
 20 23  1  0  0  0  0
 18 19  1  0  0  0  0
 18 20  1  0  0  0  0
M  END
$$$$
default_name
  -OEChem-01062215323D

 23 22  0     1  0  0  0  0  0999 V2000
   -2.6721   -3.7279    0.7212 H   0  0  0  0  0  0  0  0  0  0  0  0
   -2.6561   -2.6819    0.4162 C   0  0  0  0  0  0  0  0  0  0  0  0
   -3.2401   -2.0889    1.1172 H   0  0  0  0  0  0  0  0  0  0  0  0
   -3.0671   -2.5859   -0.5858 H   0  0  0  0  0  0  0  0  0  0  0  0
   -1.2261   -2.1939    0.4202 C   0  0  0  0  0  0  0  0  0  0  0  0
   -0.3181   -2.9519    0.7312 O   0  0  0  0  0  0  0  0  0  0  0  0
   -1.0281   -0.9259    0.0662 N   0  0  0  0  0  0  0  0  0  0  0  0
   -1.8301   -0.3519   -0.1548 H   0  0  0  0  0  0  0  0  0  0  0  0
    0.2709   -0.2409    0.0912 C   0  0  1  0  0  0  0  0  0  0  0  0
    0.1966    0.6286    0.7448 H   0  0  0  0  0  0  0  0  0  0  0  0
    1.3432   -1.1756    0.6658 C   0  0  0  0  0  0  0  0  0  0  0  0
    2.2780   -0.6232    0.7750 H   0  0  0  0  0  0  0  0  0  0  0  0
    1.0279   -1.5321    1.6480 H   0  0  0  0  0  0  0  0  0  0  0  0
    1.5642   -2.2788   -0.1928 O   0  0  0  0  0  0  0  0  0  0  0  0
    2.3537   -2.7415    0.1079 H   0  0  0  0  0  0  0  0  0  0  0  0
    0.6491    0.2517   -1.3156 C   0  0  0  0  0  0  0  0  0  0  0  0
    0.7618   -0.5532   -2.2409 O   0  0  0  0  0  0  0  0  0  0  0  0
    0.8331    1.5655   -1.4846 N   0  0  0  0  0  0  0  0  0  0  0  0
    0.8106    2.1361   -0.6499 H   0  0  0  0  0  0  0  0  0  0  0  0
    1.1744    2.2010   -2.7559 C   0  0  0  0  0  0  0  0  0  0  0  0
    0.5450    1.7972   -3.5518 H   0  0  0  0  0  0  0  0  0  0  0  0
    1.0231    3.2788   -2.6903 H   0  0  0  0  0  0  0  0  0  0  0  0
    2.2192    1.9963   -2.9989 H   0  0  0  0  0  0  0  0  0  0  0  0
  5  6  2  0  0  0  0
  5  7  1  0  0  0  0
  2  3  1  0  0  0  0
  2  4  1  0  0  0  0
  2  5  1  0  0  0  0
  1  2  1  0  0  0  0
 16 17  2  0  0  0  0
 16 18  1  0  0  0  0
 14 15  1  0  0  0  0
 11 12  1  0  0  0  0
 11 13  1  0  0  0  0
 11 14  1  0  0  0  0
  9 10  1  0  0  0  0
  9 11  1  0  0  0  0
  9 16  1  0  0  0  0
  7  8  1  0  0  0  0
  7  9  1  0  0  0  0
 20 21  1  0  0  0  0
 20 22  1  0  0  0  0
 20 23  1  0  0  0  0
 18 19  1  0  0  0  0
 18 20  1  0  0  0  0
M  END
$$$$
default_name
  -OEChem-01062215323D

 23 22  0     1  0  0  0  0  0999 V2000
   -2.6721   -3.7279    0.7212 H   0  0  0  0  0  0  0  0  0  0  0  0
   -2.6561   -2.6819    0.4162 C   0  0  0  0  0  0  0  0  0  0  0  0
   -3.2401   -2.0889    1.1172 H   0  0  0  0  0  0  0  0  0  0  0  0
   -3.0671   -2.5859   -0.5858 H   0  0  0  0  0  0  0  0  0  0  0  0
   -1.2261   -2.1939    0.4202 C   0  0  0  0  0  0  0  0  0  0  0  0
   -0.3181   -2.9519    0.7312 O   0  0  0  0  0  0  0  0  0  0  0  0
   -1.0281   -0.9259    0.0662 N   0  0  0  0  0  0  0  0  0  0  0  0
   -1.8301   -0.3519   -0.1548 H   0  0  0  0  0  0  0  0  0  0  0  0
    0.2709   -0.2409    0.0912 C   0  0  1  0  0  0  0  0  0  0  0  0
    0.1966    0.6286    0.7448 H   0  0  0  0  0  0  0  0  0  0  0  0
    1.3432   -1.1756    0.6658 C   0  0  0  0  0  0  0  0  0  0  0  0
    2.2780   -0.6232    0.7750 H   0  0  0  0  0  0  0  0  0  0  0  0
    1.0279   -1.5321    1.6480 H   0  0  0  0  0  0  0  0  0  0  0  0
    1.5642   -2.2788   -0.1928 O   0  0  0  0  0  0  0  0  0  0  0  0
    2.3537   -2.7415    0.1079 H   0  0  0  0  0  0  0  0  0  0  0  0
    0.6491    0.2517   -1.3156 C   0  0  0  0  0  0  0  0  0  0  0  0
    0.4958   -0.4868   -2.2892 O   0  0  0  0  0  0  0  0  0  0  0  0
    1.1291    1.4947   -1.4299 N   0  0  0  0  0  0  0  0  0  0  0  0
    1.3068    1.9917   -0.5671 H   0  0  0  0  0  0  0  0  0  0  0  0
    1.5160    2.1244   -2.6908 C   0  0  0  0  0  0  0  0  0  0  0  0
    0.7502    1.9390   -3.4470 H   0  0  0  0  0  0  0  0  0  0  0  0
    1.6325    3.1999   -2.5540 H   0  0  0  0  0  0  0  0  0  0  0  0
    2.4600    1.6993   -3.0381 H   0  0  0  0  0  0  0  0  0  0  0  0
  5  6  2  0  0  0  0
  5  7  1  0  0  0  0
  2  3  1  0  0  0  0
  2  4  1  0  0  0  0
  2  5  1  0  0  0  0
  1  2  1  0  0  0  0
 16 17  2  0  0  0  0
 16 18  1  0  0  0  0
 14 15  1  0  0  0  0
 11 12  1  0  0  0  0
 11 13  1  0  0  0  0
 11 14  1  0  0  0  0
  9 10  1  0  0  0  0
  9 11  1  0  0  0  0
  9 16  1  0  0  0  0
  7  8  1  0  0  0  0
  7  9  1  0  0  0  0
 20 21  1  0  0  0  0
 20 22  1  0  0  0  0
 20 23  1  0  0  0  0
 18 19  1  0  0  0  0
 18 20  1  0  0  0  0
M  END
$$$$
default_name
  -OEChem-01062215323D

 23 22  0     1  0  0  0  0  0999 V2000
   -2.6721   -3.7279    0.7212 H   0  0  0  0  0  0  0  0  0  0  0  0
   -2.6561   -2.6819    0.4162 C   0  0  0  0  0  0  0  0  0  0  0  0
   -3.2401   -2.0889    1.1172 H   0  0  0  0  0  0  0  0  0  0  0  0
   -3.0671   -2.5859   -0.5858 H   0  0  0  0  0  0  0  0  0  0  0  0
   -1.2261   -2.1939    0.4202 C   0  0  0  0  0  0  0  0  0  0  0  0
   -0.3181   -2.9519    0.7312 O   0  0  0  0  0  0  0  0  0  0  0  0
   -1.0281   -0.9259    0.0662 N   0  0  0  0  0  0  0  0  0  0  0  0
   -1.8301   -0.3519   -0.1548 H   0  0  0  0  0  0  0  0  0  0  0  0
    0.2709   -0.2409    0.0912 C   0  0  1  0  0  0  0  0  0  0  0  0
    0.1966    0.6286    0.7448 H   0  0  0  0  0  0  0  0  0  0  0  0
    1.3432   -1.1756    0.6658 C   0  0  0  0  0  0  0  0  0  0  0  0
    2.2780   -0.6232    0.7750 H   0  0  0  0  0  0  0  0  0  0  0  0
    1.0279   -1.5321    1.6480 H   0  0  0  0  0  0  0  0  0  0  0  0
    1.5642   -2.2788   -0.1928 O   0  0  0  0  0  0  0  0  0  0  0  0
    2.3537   -2.7415    0.1079 H   0  0  0  0  0  0  0  0  0  0  0  0
    0.6491    0.2517   -1.3156 C   0  0  0  0  0  0  0  0  0  0  0  0
    0.2506   -0.3566   -2.3095 O   0  0  0  0  0  0  0  0  0  0  0  0
    1.4028    1.3528   -1.4060 N   0  0  0  0  0  0  0  0  0  0  0  0
    1.7587    1.7294   -0.5374 H   0  0  0  0  0  0  0  0  0  0  0  0
    1.8332    1.9655   -2.6612 C   0  0  0  0  0  0  0  0  0  0  0  0
    0.9907    2.0207   -3.3537 H   0  0  0  0  0  0  0  0  0  0  0  0
    2.2138    2.9708   -2.4780 H   0  0  0  0  0  0  0  0  0  0  0  0
    2.6191    1.3580   -3.1148 H   0  0  0  0  0  0  0  0  0  0  0  0
  5  6  2  0  0  0  0
  5  7  1  0  0  0  0
  2  3  1  0  0  0  0
  2  4  1  0  0  0  0
  2  5  1  0  0  0  0
  1  2  1  0  0  0  0
 16 17  2  0  0  0  0
 16 18  1  0  0  0  0
 14 15  1  0  0  0  0
 11 12  1  0  0  0  0
 11 13  1  0  0  0  0
 11 14  1  0  0  0  0
  9 10  1  0  0  0  0
  9 11  1  0  0  0  0
  9 16  1  0  0  0  0
  7  8  1  0  0  0  0
  7  9  1  0  0  0  0
 20 21  1  0  0  0  0
 20 22  1  0  0  0  0
 20 23  1  0  0  0  0
 18 19  1  0  0  0  0
 18 20  1  0  0  0  0
M  END
$$$$
default_name
  -OEChem-01062215323D

 23 22  0     1  0  0  0  0  0999 V2000
   -2.6721   -3.7279    0.7212 H   0  0  0  0  0  0  0  0  0  0  0  0
   -2.6561   -2.6819    0.4162 C   0  0  0  0  0  0  0  0  0  0  0  0
   -3.2401   -2.0889    1.1172 H   0  0  0  0  0  0  0  0  0  0  0  0
   -3.0671   -2.5859   -0.5858 H   0  0  0  0  0  0  0  0  0  0  0  0
   -1.2261   -2.1939    0.4202 C   0  0  0  0  0  0  0  0  0  0  0  0
   -0.3181   -2.9519    0.7312 O   0  0  0  0  0  0  0  0  0  0  0  0
   -1.0281   -0.9259    0.0662 N   0  0  0  0  0  0  0  0  0  0  0  0
   -1.8301   -0.3519   -0.1548 H   0  0  0  0  0  0  0  0  0  0  0  0
    0.2709   -0.2409    0.0912 C   0  0  1  0  0  0  0  0  0  0  0  0
    0.1966    0.6286    0.7448 H   0  0  0  0  0  0  0  0  0  0  0  0
    1.3432   -1.1756    0.6658 C   0  0  0  0  0  0  0  0  0  0  0  0
    2.2780   -0.6232    0.7750 H   0  0  0  0  0  0  0  0  0  0  0  0
    1.0279   -1.5321    1.6480 H   0  0  0  0  0  0  0  0  0  0  0  0
    1.5642   -2.2788   -0.1928 O   0  0  0  0  0  0  0  0  0  0  0  0
    2.3537   -2.7415    0.1079 H   0  0  0  0  0  0  0  0  0  0  0  0
    0.6491    0.2517   -1.3156 C   0  0  0  0  0  0  0  0  0  0  0  0
    0.0429   -0.1716   -2.3006 O   0  0  0  0  0  0  0  0  0  0  0  0
    1.6355    1.1493   -1.4146 N   0  0  0  0  0  0  0  0  0  0  0  0
    2.1355    1.3671   -0.5629 H   0  0  0  0  0  0  0  0  0  0  0  0
    2.1045    1.7350   -2.6690 C   0  0  0  0  0  0  0  0  0  0  0  0
    1.2500    2.0368   -3.2784 H   0  0  0  0  0  0  0  0  0  0  0  0
    2.7274    2.6069   -2.4673 H   0  0  0  0  0  0  0  0  0  0  0  0
    2.6855    0.9956   -3.2239 H   0  0  0  0  0  0  0  0  0  0  0  0
  5  6  2  0  0  0  0
  5  7  1  0  0  0  0
  2  3  1  0  0  0  0
  2  4  1  0  0  0  0
  2  5  1  0  0  0  0
  1  2  1  0  0  0  0
 16 17  2  0  0  0  0
 16 18  1  0  0  0  0
 14 15  1  0  0  0  0
 11 12  1  0  0  0  0
 11 13  1  0  0  0  0
 11 14  1  0  0  0  0
  9 10  1  0  0  0  0
  9 11  1  0  0  0  0
  9 16  1  0  0  0  0
  7  8  1  0  0  0  0
  7  9  1  0  0  0  0
 20 21  1  0  0  0  0
 20 22  1  0  0  0  0
 20 23  1  0  0  0  0
 18 19  1  0  0  0  0
 18 20  1  0  0  0  0
M  END
$$$$
default_name
  -OEChem-01062215323D

 23 22  0     1  0  0  0  0  0999 V2000
   -2.6721   -3.7279    0.7212 H   0  0  0  0  0  0  0  0  0  0  0  0
   -2.6561   -2.6819    0.4162 C   0  0  0  0  0  0  0  0  0  0  0  0
   -3.2401   -2.0889    1.1172 H   0  0  0  0  0  0  0  0  0  0  0  0
   -3.0671   -2.5859   -0.5858 H   0  0  0  0  0  0  0  0  0  0  0  0
   -1.2261   -2.1939    0.4202 C   0  0  0  0  0  0  0  0  0  0  0  0
   -0.3181   -2.9519    0.7312 O   0  0  0  0  0  0  0  0  0  0  0  0
   -1.0281   -0.9259    0.0662 N   0  0  0  0  0  0  0  0  0  0  0  0
   -1.8301   -0.3519   -0.1548 H   0  0  0  0  0  0  0  0  0  0  0  0
    0.2709   -0.2409    0.0912 C   0  0  1  0  0  0  0  0  0  0  0  0
    0.2848    0.4546    0.9307 H   0  0  0  0  0  0  0  0  0  0  0  0
    1.3959   -1.2622    0.3031 C   0  0  0  0  0  0  0  0  0  0  0  0
    2.3423   -0.7323    0.4228 H   0  0  0  0  0  0  0  0  0  0  0  0
    1.1986   -1.8397    1.2081 H   0  0  0  0  0  0  0  0  0  0  0  0
    1.5005   -2.1357   -0.8056 O   0  0  0  0  0  0  0  0  0  0  0  0
    2.3162   -2.6402   -0.7161 H   0  0  0  0  0  0  0  0  0  0  0  0
    0.4805    0.5672   -1.2003 C   0  0  0  0  0  0  0  0  0  0  0  0
   -0.3928    0.5790   -2.0686 O   0  0  0  0  0  0  0  0  0  0  0  0
    1.6236    1.2499   -1.3267 N   0  0  0  0  0  0  0  0  0  0  0  0
    2.3182    1.1056   -0.6060 H   0  0  0  0  0  0  0  0  0  0  0  0
    1.9724    2.0825   -2.4761 C   0  0  0  0  0  0  0  0  0  0  0  0
    1.1207    2.7080   -2.7517 H   0  0  0  0  0  0  0  0  0  0  0  0
    2.8229    2.7205   -2.2342 H   0  0  0  0  0  0  0  0  0  0  0  0
    2.2276    1.4458   -3.3258 H   0  0  0  0  0  0  0  0  0  0  0  0
  5  6  2  0  0  0  0
  5  7  1  0  0  0  0
  2  3  1  0  0  0  0
  2  4  1  0  0  0  0
  2  5  1  0  0  0  0
  1  2  1  0  0  0  0
 16 17  2  0  0  0  0
 16 18  1  0  0  0  0
 14 15  1  0  0  0  0
 11 12  1  0  0  0  0
 11 13  1  0  0  0  0
 11 14  1  0  0  0  0
  9 10  1  0  0  0  0
  9 11  1  0  0  0  0
  9 16  1  0  0  0  0
  7  8  1  0  0  0  0
  7  9  1  0  0  0  0
 20 21  1  0  0  0  0
 20 22  1  0  0  0  0
 20 23  1  0  0  0  0
 18 19  1  0  0  0  0
 18 20  1  0  0  0  0
M  END
$$$$
default_name
  -OEChem-01062215323D

 23 22  0     1  0  0  0  0  0999 V2000
   -2.6721   -3.7279    0.7212 H   0  0  0  0  0  0  0  0  0  0  0  0
   -2.6561   -2.6819    0.4162 C   0  0  0  0  0  0  0  0  0  0  0  0
   -3.2401   -2.0889    1.1172 H   0  0  0  0  0  0  0  0  0  0  0  0
   -3.0671   -2.5859   -0.5858 H   0  0  0  0  0  0  0  0  0  0  0  0
   -1.2261   -2.1939    0.4202 C   0  0  0  0  0  0  0  0  0  0  0  0
   -0.3181   -2.9519    0.7312 O   0  0  0  0  0  0  0  0  0  0  0  0
   -1.0281   -0.9259    0.0662 N   0  0  0  0  0  0  0  0  0  0  0  0
   -1.8301   -0.3519   -0.1548 H   0  0  0  0  0  0  0  0  0  0  0  0
    0.2709   -0.2409    0.0912 C   0  0  1  0  0  0  0  0  0  0  0  0
    0.2848    0.4546    0.9307 H   0  0  0  0  0  0  0  0  0  0  0  0
    1.3959   -1.2622    0.3031 C   0  0  0  0  0  0  0  0  0  0  0  0
    2.3423   -0.7323    0.4228 H   0  0  0  0  0  0  0  0  0  0  0  0
    1.1986   -1.8397    1.2081 H   0  0  0  0  0  0  0  0  0  0  0  0
    1.5005   -2.1357   -0.8056 O   0  0  0  0  0  0  0  0  0  0  0  0
    2.3162   -2.6402   -0.7161 H   0  0  0  0  0  0  0  0  0  0  0  0
    0.4805    0.5672   -1.2003 C   0  0  0  0  0  0  0  0  0  0  0  0
   -0.4757    0.8101   -1.9374 O   0  0  0  0  0  0  0  0  0  0  0  0
    1.7187    0.9937   -1.4715 N   0  0  0  0  0  0  0  0  0  0  0  0
    2.4536    0.6674   -0.8581 H   0  0  0  0  0  0  0  0  0  0  0  0
    2.0870    1.7887   -2.6414 C   0  0  0  0  0  0  0  0  0  0  0  0
    1.3649    2.5957   -2.7824 H   0  0  0  0  0  0  0  0  0  0  0  0
    3.0813    2.2160   -2.5079 H   0  0  0  0  0  0  0  0  0  0  0  0
    2.0815    1.1556   -3.5311 H   0  0  0  0  0  0  0  0  0  0  0  0
  5  6  2  0  0  0  0
  5  7  1  0  0  0  0
  2  3  1  0  0  0  0
  2  4  1  0  0  0  0
  2  5  1  0  0  0  0
  1  2  1  0  0  0  0
 16 17  2  0  0  0  0
 16 18  1  0  0  0  0
 14 15  1  0  0  0  0
 11 12  1  0  0  0  0
 11 13  1  0  0  0  0
 11 14  1  0  0  0  0
  9 10  1  0  0  0  0
  9 11  1  0  0  0  0
  9 16  1  0  0  0  0
  7  8  1  0  0  0  0
  7  9  1  0  0  0  0
 20 21  1  0  0  0  0
 20 22  1  0  0  0  0
 20 23  1  0  0  0  0
 18 19  1  0  0  0  0
 18 20  1  0  0  0  0
M  END
$$$$
default_name
  -OEChem-01062215323D

 23 22  0     1  0  0  0  0  0999 V2000
   -2.6721   -3.7279    0.7212 H   0  0  0  0  0  0  0  0  0  0  0  0
   -2.6561   -2.6819    0.4162 C   0  0  0  0  0  0  0  0  0  0  0  0
   -3.2401   -2.0889    1.1172 H   0  0  0  0  0  0  0  0  0  0  0  0
   -3.0671   -2.5859   -0.5858 H   0  0  0  0  0  0  0  0  0  0  0  0
   -1.2261   -2.1939    0.4202 C   0  0  0  0  0  0  0  0  0  0  0  0
   -0.3181   -2.9519    0.7312 O   0  0  0  0  0  0  0  0  0  0  0  0
   -1.0281   -0.9259    0.0662 N   0  0  0  0  0  0  0  0  0  0  0  0
   -1.8301   -0.3519   -0.1548 H   0  0  0  0  0  0  0  0  0  0  0  0
    0.2709   -0.2409    0.0912 C   0  0  1  0  0  0  0  0  0  0  0  0
    0.2848    0.4546    0.9307 H   0  0  0  0  0  0  0  0  0  0  0  0
    1.3959   -1.2622    0.3031 C   0  0  0  0  0  0  0  0  0  0  0  0
    2.3423   -0.7323    0.4228 H   0  0  0  0  0  0  0  0  0  0  0  0
    1.1986   -1.8397    1.2081 H   0  0  0  0  0  0  0  0  0  0  0  0
    1.5005   -2.1357   -0.8056 O   0  0  0  0  0  0  0  0  0  0  0  0
    2.3162   -2.6402   -0.7161 H   0  0  0  0  0  0  0  0  0  0  0  0
    0.4805    0.5672   -1.2003 C   0  0  0  0  0  0  0  0  0  0  0  0
   -0.4877    1.0467   -1.7913 O   0  0  0  0  0  0  0  0  0  0  0  0
    1.7352    0.7308   -1.6334 N   0  0  0  0  0  0  0  0  0  0  0  0
    2.4549    0.2237   -1.1356 H   0  0  0  0  0  0  0  0  0  0  0  0
    2.1114    1.4858   -2.8269 C   0  0  0  0  0  0  0  0  0  0  0  0
    1.5722    2.4352   -2.8491 H   0  0  0  0  0  0  0  0  0  0  0  0
    3.1840    1.6822   -2.8253 H   0  0  0  0  0  0  0  0  0  0  0  0
    1.8494    0.9143   -3.7197 H   0  0  0  0  0  0  0  0  0  0  0  0
  5  6  2  0  0  0  0
  5  7  1  0  0  0  0
  2  3  1  0  0  0  0
  2  4  1  0  0  0  0
  2  5  1  0  0  0  0
  1  2  1  0  0  0  0
 16 17  2  0  0  0  0
 16 18  1  0  0  0  0
 14 15  1  0  0  0  0
 11 12  1  0  0  0  0
 11 13  1  0  0  0  0
 11 14  1  0  0  0  0
  9 10  1  0  0  0  0
  9 11  1  0  0  0  0
  9 16  1  0  0  0  0
  7  8  1  0  0  0  0
  7  9  1  0  0  0  0
 20 21  1  0  0  0  0
 20 22  1  0  0  0  0
 20 23  1  0  0  0  0
 18 19  1  0  0  0  0
 18 20  1  0  0  0  0
M  END
$$$$
default_name
  -OEChem-01062215323D

 23 22  0     1  0  0  0  0  0999 V2000
   -2.6721   -3.7279    0.7212 H   0  0  0  0  0  0  0  0  0  0  0  0
   -2.6561   -2.6819    0.4162 C   0  0  0  0  0  0  0  0  0  0  0  0
   -3.2401   -2.0889    1.1172 H   0  0  0  0  0  0  0  0  0  0  0  0
   -3.0671   -2.5859   -0.5858 H   0  0  0  0  0  0  0  0  0  0  0  0
   -1.2261   -2.1939    0.4202 C   0  0  0  0  0  0  0  0  0  0  0  0
   -0.3181   -2.9519    0.7312 O   0  0  0  0  0  0  0  0  0  0  0  0
   -1.0281   -0.9259    0.0662 N   0  0  0  0  0  0  0  0  0  0  0  0
   -1.8301   -0.3519   -0.1548 H   0  0  0  0  0  0  0  0  0  0  0  0
    0.2709   -0.2409    0.0912 C   0  0  1  0  0  0  0  0  0  0  0  0
    0.2848    0.4546    0.9307 H   0  0  0  0  0  0  0  0  0  0  0  0
    1.3959   -1.2622    0.3031 C   0  0  0  0  0  0  0  0  0  0  0  0
    2.3423   -0.7323    0.4228 H   0  0  0  0  0  0  0  0  0  0  0  0
    1.1986   -1.8397    1.2081 H   0  0  0  0  0  0  0  0  0  0  0  0
    1.5005   -2.1357   -0.8056 O   0  0  0  0  0  0  0  0  0  0  0  0
    2.3162   -2.6402   -0.7161 H   0  0  0  0  0  0  0  0  0  0  0  0
    0.4805    0.5672   -1.2003 C   0  0  0  0  0  0  0  0  0  0  0  0
   -0.4280    1.2727   -1.6402 O   0  0  0  0  0  0  0  0  0  0  0  0
    1.6720    0.4789   -1.8013 N   0  0  0  0  0  0  0  0  0  0  0  0
    2.3219   -0.1954   -1.4194 H   0  0  0  0  0  0  0  0  0  0  0  0
    2.0439    1.1945   -3.0202 C   0  0  0  0  0  0  0  0  0  0  0  0
    1.7284    2.2375   -2.9475 H   0  0  0  0  0  0  0  0  0  0  0  0
    3.1240    1.1554   -3.1646 H   0  0  0  0  0  0  0  0  0  0  0  0
    1.5471    0.7383   -3.8789 H   0  0  0  0  0  0  0  0  0  0  0  0
  5  6  2  0  0  0  0
  5  7  1  0  0  0  0
  2  3  1  0  0  0  0
  2  4  1  0  0  0  0
  2  5  1  0  0  0  0
  1  2  1  0  0  0  0
 16 17  2  0  0  0  0
 16 18  1  0  0  0  0
 14 15  1  0  0  0  0
 11 12  1  0  0  0  0
 11 13  1  0  0  0  0
 11 14  1  0  0  0  0
  9 10  1  0  0  0  0
  9 11  1  0  0  0  0
  9 16  1  0  0  0  0
  7  8  1  0  0  0  0
  7  9  1  0  0  0  0
 20 21  1  0  0  0  0
 20 22  1  0  0  0  0
 20 23  1  0  0  0  0
 18 19  1  0  0  0  0
 18 20  1  0  0  0  0
M  END
$$$$
default_name
  -OEChem-01062215323D

 23 22  0     1  0  0  0  0  0999 V2000
   -2.6721   -3.7279    0.7212 H   0  0  0  0  0  0  0  0  0  0  0  0
   -2.6561   -2.6819    0.4162 C   0  0  0  0  0  0  0  0  0  0  0  0
   -3.2401   -2.0889    1.1172 H   0  0  0  0  0  0  0  0  0  0  0  0
   -3.0671   -2.5859   -0.5858 H   0  0  0  0  0  0  0  0  0  0  0  0
   -1.2261   -2.1939    0.4202 C   0  0  0  0  0  0  0  0  0  0  0  0
   -0.3181   -2.9519    0.7312 O   0  0  0  0  0  0  0  0  0  0  0  0
   -1.0281   -0.9259    0.0662 N   0  0  0  0  0  0  0  0  0  0  0  0
   -1.8301   -0.3519   -0.1548 H   0  0  0  0  0  0  0  0  0  0  0  0
    0.2709   -0.2409    0.0912 C   0  0  1  0  0  0  0  0  0  0  0  0
    0.2848    0.4546    0.9307 H   0  0  0  0  0  0  0  0  0  0  0  0
    1.3959   -1.2622    0.3031 C   0  0  0  0  0  0  0  0  0  0  0  0
    2.3423   -0.7323    0.4228 H   0  0  0  0  0  0  0  0  0  0  0  0
    1.1986   -1.8397    1.2081 H   0  0  0  0  0  0  0  0  0  0  0  0
    1.5005   -2.1357   -0.8056 O   0  0  0  0  0  0  0  0  0  0  0  0
    2.3162   -2.6402   -0.7161 H   0  0  0  0  0  0  0  0  0  0  0  0
    0.4805    0.5672   -1.2003 C   0  0  0  0  0  0  0  0  0  0  0  0
   -0.3007    1.4727   -1.4944 O   0  0  0  0  0  0  0  0  0  0  0  0
    1.5333    0.2552   -1.9637 N   0  0  0  0  0  0  0  0  0  0  0  0
    2.0637   -0.5613   -1.6903 H   0  0  0  0  0  0  0  0  0  0  0  0
    1.8891    0.9346   -3.2079 C   0  0  0  0  0  0  0  0  0  0  0  0
    1.8230    2.0161   -3.0707 H   0  0  0  0  0  0  0  0  0  0  0  0
    2.9054    0.6716   -3.5028 H   0  0  0  0  0  0  0  0  0  0  0  0
    1.1952    0.6397   -3.9978 H   0  0  0  0  0  0  0  0  0  0  0  0
  5  6  2  0  0  0  0
  5  7  1  0  0  0  0
  2  3  1  0  0  0  0
  2  4  1  0  0  0  0
  2  5  1  0  0  0  0
  1  2  1  0  0  0  0
 16 17  2  0  0  0  0
 16 18  1  0  0  0  0
 14 15  1  0  0  0  0
 11 12  1  0  0  0  0
 11 13  1  0  0  0  0
 11 14  1  0  0  0  0
  9 10  1  0  0  0  0
  9 11  1  0  0  0  0
  9 16  1  0  0  0  0
  7  8  1  0  0  0  0
  7  9  1  0  0  0  0
 20 21  1  0  0  0  0
 20 22  1  0  0  0  0
 20 23  1  0  0  0  0
 18 19  1  0  0  0  0
 18 20  1  0  0  0  0
M  END
$$$$
default_name
  -OEChem-01062215323D

 23 22  0     1  0  0  0  0  0999 V2000
   -2.6721   -3.7279    0.7212 H   0  0  0  0  0  0  0  0  0  0  0  0
   -2.6561   -2.6819    0.4162 C   0  0  0  0  0  0  0  0  0  0  0  0
   -3.2401   -2.0889    1.1172 H   0  0  0  0  0  0  0  0  0  0  0  0
   -3.0671   -2.5859   -0.5858 H   0  0  0  0  0  0  0  0  0  0  0  0
   -1.2261   -2.1939    0.4202 C   0  0  0  0  0  0  0  0  0  0  0  0
   -0.3181   -2.9519    0.7312 O   0  0  0  0  0  0  0  0  0  0  0  0
   -1.0281   -0.9259    0.0662 N   0  0  0  0  0  0  0  0  0  0  0  0
   -1.8301   -0.3519   -0.1548 H   0  0  0  0  0  0  0  0  0  0  0  0
    0.2709   -0.2409    0.0912 C   0  0  1  0  0  0  0  0  0  0  0  0
    0.2848    0.4546    0.9307 H   0  0  0  0  0  0  0  0  0  0  0  0
    1.3959   -1.2622    0.3031 C   0  0  0  0  0  0  0  0  0  0  0  0
    2.3423   -0.7323    0.4228 H   0  0  0  0  0  0  0  0  0  0  0  0
    1.1986   -1.8397    1.2081 H   0  0  0  0  0  0  0  0  0  0  0  0
    1.5005   -2.1357   -0.8056 O   0  0  0  0  0  0  0  0  0  0  0  0
    2.3162   -2.6402   -0.7161 H   0  0  0  0  0  0  0  0  0  0  0  0
    0.4805    0.5672   -1.2003 C   0  0  0  0  0  0  0  0  0  0  0  0
   -0.1144    1.6331   -1.3638 O   0  0  0  0  0  0  0  0  0  0  0  0
    1.3287    0.0751   -2.1097 N   0  0  0  0  0  0  0  0  0  0  0  0
    1.6980   -0.8491   -1.9297 H   0  0  0  0  0  0  0  0  0  0  0  0
    1.6575    0.7239   -3.3774 C   0  0  0  0  0  0  0  0  0  0  0  0
    1.8495    1.7859   -3.2104 H   0  0  0  0  0  0  0  0  0  0  0  0
    2.5430    0.2638   -3.8168 H   0  0  0  0  0  0  0  0  0  0  0  0
    0.8176    0.6251   -4.0682 H   0  0  0  0  0  0  0  0  0  0  0  0
  5  6  2  0  0  0  0
  5  7  1  0  0  0  0
  2  3  1  0  0  0  0
  2  4  1  0  0  0  0
  2  5  1  0  0  0  0
  1  2  1  0  0  0  0
 16 17  2  0  0  0  0
 16 18  1  0  0  0  0
 14 15  1  0  0  0  0
 11 12  1  0  0  0  0
 11 13  1  0  0  0  0
 11 14  1  0  0  0  0
  9 10  1  0  0  0  0
  9 11  1  0  0  0  0
  9 16  1  0  0  0  0
  7  8  1  0  0  0  0
  7  9  1  0  0  0  0
 20 21  1  0  0  0  0
 20 22  1  0  0  0  0
 20 23  1  0  0  0  0
 18 19  1  0  0  0  0
 18 20  1  0  0  0  0
M  END
$$$$
default_name
  -OEChem-01062215323D

 23 22  0     1  0  0  0  0  0999 V2000
   -2.6721   -3.7279    0.7212 H   0  0  0  0  0  0  0  0  0  0  0  0
   -2.6561   -2.6819    0.4162 C   0  0  0  0  0  0  0  0  0  0  0  0
   -3.2401   -2.0889    1.1172 H   0  0  0  0  0  0  0  0  0  0  0  0
   -3.0671   -2.5859   -0.5858 H   0  0  0  0  0  0  0  0  0  0  0  0
   -1.2261   -2.1939    0.4202 C   0  0  0  0  0  0  0  0  0  0  0  0
   -0.3181   -2.9519    0.7312 O   0  0  0  0  0  0  0  0  0  0  0  0
   -1.0281   -0.9259    0.0662 N   0  0  0  0  0  0  0  0  0  0  0  0
   -1.8301   -0.3519   -0.1548 H   0  0  0  0  0  0  0  0  0  0  0  0
    0.2709   -0.2409    0.0912 C   0  0  1  0  0  0  0  0  0  0  0  0
    0.2848    0.4546    0.9307 H   0  0  0  0  0  0  0  0  0  0  0  0
    1.3959   -1.2622    0.3031 C   0  0  0  0  0  0  0  0  0  0  0  0
    2.3423   -0.7323    0.4228 H   0  0  0  0  0  0  0  0  0  0  0  0
    1.1986   -1.8397    1.2081 H   0  0  0  0  0  0  0  0  0  0  0  0
    1.5005   -2.1357   -0.8056 O   0  0  0  0  0  0  0  0  0  0  0  0
    2.3162   -2.6402   -0.7161 H   0  0  0  0  0  0  0  0  0  0  0  0
    0.4805    0.5672   -1.2003 C   0  0  0  0  0  0  0  0  0  0  0  0
    0.1182    1.7429   -1.2574 O   0  0  0  0  0  0  0  0  0  0  0  0
    1.0720   -0.0493   -2.2292 N   0  0  0  0  0  0  0  0  0  0  0  0
    1.2496   -1.0391   -2.1214 H   0  0  0  0  0  0  0  0  0  0  0  0
    1.3650    0.5766   -3.5170 C   0  0  0  0  0  0  0  0  0  0  0  0
    1.8060    1.5628   -3.3571 H   0  0  0  0  0  0  0  0  0  0  0  0
    2.0617   -0.0403   -4.0853 H   0  0  0  0  0  0  0  0  0  0  0  0
    0.4402    0.6955   -4.0854 H   0  0  0  0  0  0  0  0  0  0  0  0
  5  6  2  0  0  0  0
  5  7  1  0  0  0  0
  2  3  1  0  0  0  0
  2  4  1  0  0  0  0
  2  5  1  0  0  0  0
  1  2  1  0  0  0  0
 16 17  2  0  0  0  0
 16 18  1  0  0  0  0
 14 15  1  0  0  0  0
 11 12  1  0  0  0  0
 11 13  1  0  0  0  0
 11 14  1  0  0  0  0
  9 10  1  0  0  0  0
  9 11  1  0  0  0  0
  9 16  1  0  0  0  0
  7  8  1  0  0  0  0
  7  9  1  0  0  0  0
 20 21  1  0  0  0  0
 20 22  1  0  0  0  0
 20 23  1  0  0  0  0
 18 19  1  0  0  0  0
 18 20  1  0  0  0  0
M  END
$$$$
default_name
  -OEChem-01062215323D

 23 22  0     1  0  0  0  0  0999 V2000
   -2.6721   -3.7279    0.7212 H   0  0  0  0  0  0  0  0  0  0  0  0
   -2.6561   -2.6819    0.4162 C   0  0  0  0  0  0  0  0  0  0  0  0
   -3.2401   -2.0889    1.1172 H   0  0  0  0  0  0  0  0  0  0  0  0
   -3.0671   -2.5859   -0.5858 H   0  0  0  0  0  0  0  0  0  0  0  0
   -1.2261   -2.1939    0.4202 C   0  0  0  0  0  0  0  0  0  0  0  0
   -0.3181   -2.9519    0.7312 O   0  0  0  0  0  0  0  0  0  0  0  0
   -1.0281   -0.9259    0.0662 N   0  0  0  0  0  0  0  0  0  0  0  0
   -1.8301   -0.3519   -0.1548 H   0  0  0  0  0  0  0  0  0  0  0  0
    0.2709   -0.2409    0.0912 C   0  0  1  0  0  0  0  0  0  0  0  0
    0.2848    0.4546    0.9307 H   0  0  0  0  0  0  0  0  0  0  0  0
    1.3959   -1.2622    0.3031 C   0  0  0  0  0  0  0  0  0  0  0  0
    2.3423   -0.7323    0.4228 H   0  0  0  0  0  0  0  0  0  0  0  0
    1.1986   -1.8397    1.2081 H   0  0  0  0  0  0  0  0  0  0  0  0
    1.5005   -2.1357   -0.8056 O   0  0  0  0  0  0  0  0  0  0  0  0
    2.3162   -2.6402   -0.7161 H   0  0  0  0  0  0  0  0  0  0  0  0
    0.4805    0.5672   -1.2003 C   0  0  0  0  0  0  0  0  0  0  0  0
    0.3812    1.7946   -1.1823 O   0  0  0  0  0  0  0  0  0  0  0  0
    0.7808   -0.1094   -2.3141 N   0  0  0  0  0  0  0  0  0  0  0  0
    0.7491   -1.1184   -2.2523 H   0  0  0  0  0  0  0  0  0  0  0  0
    1.0314    0.5029   -3.6173 C   0  0  0  0  0  0  0  0  0  0  0  0
    1.6956    1.3619   -3.5007 H   0  0  0  0  0  0  0  0  0  0  0  0
    1.4942   -0.2200   -4.2898 H   0  0  0  0  0  0  0  0  0  0  0  0
    0.0886    0.8462   -4.0482 H   0  0  0  0  0  0  0  0  0  0  0  0
  5  6  2  0  0  0  0
  5  7  1  0  0  0  0
  2  3  1  0  0  0  0
  2  4  1  0  0  0  0
  2  5  1  0  0  0  0
  1  2  1  0  0  0  0
 16 17  2  0  0  0  0
 16 18  1  0  0  0  0
 14 15  1  0  0  0  0
 11 12  1  0  0  0  0
 11 13  1  0  0  0  0
 11 14  1  0  0  0  0
  9 10  1  0  0  0  0
  9 11  1  0  0  0  0
  9 16  1  0  0  0  0
  7  8  1  0  0  0  0
  7  9  1  0  0  0  0
 20 21  1  0  0  0  0
 20 22  1  0  0  0  0
 20 23  1  0  0  0  0
 18 19  1  0  0  0  0
 18 20  1  0  0  0  0
M  END
$$$$
default_name
  -OEChem-01062215323D

 23 22  0     1  0  0  0  0  0999 V2000
   -2.6721   -3.7279    0.7212 H   0  0  0  0  0  0  0  0  0  0  0  0
   -2.6561   -2.6819    0.4162 C   0  0  0  0  0  0  0  0  0  0  0  0
   -3.2401   -2.0889    1.1172 H   0  0  0  0  0  0  0  0  0  0  0  0
   -3.0671   -2.5859   -0.5858 H   0  0  0  0  0  0  0  0  0  0  0  0
   -1.2261   -2.1939    0.4202 C   0  0  0  0  0  0  0  0  0  0  0  0
   -0.3181   -2.9519    0.7312 O   0  0  0  0  0  0  0  0  0  0  0  0
   -1.0281   -0.9259    0.0662 N   0  0  0  0  0  0  0  0  0  0  0  0
   -1.8301   -0.3519   -0.1548 H   0  0  0  0  0  0  0  0  0  0  0  0
    0.2709   -0.2409    0.0912 C   0  0  1  0  0  0  0  0  0  0  0  0
    0.2848    0.4546    0.9307 H   0  0  0  0  0  0  0  0  0  0  0  0
    1.3959   -1.2622    0.3031 C   0  0  0  0  0  0  0  0  0  0  0  0
    2.3423   -0.7323    0.4228 H   0  0  0  0  0  0  0  0  0  0  0  0
    1.1986   -1.8397    1.2081 H   0  0  0  0  0  0  0  0  0  0  0  0
    1.5005   -2.1357   -0.8056 O   0  0  0  0  0  0  0  0  0  0  0  0
    2.3162   -2.6402   -0.7161 H   0  0  0  0  0  0  0  0  0  0  0  0
    0.4805    0.5672   -1.2003 C   0  0  0  0  0  0  0  0  0  0  0  0
    0.6567    1.7848   -1.1437 O   0  0  0  0  0  0  0  0  0  0  0  0
    0.4749   -0.1012   -2.3586 N   0  0  0  0  0  0  0  0  0  0  0  0
    0.2307   -1.0816   -2.3134 H   0  0  0  0  0  0  0  0  0  0  0  0
    0.6796    0.5077   -3.6714 C   0  0  0  0  0  0  0  0  0  0  0  0
    1.5258    1.1969   -3.6315 H   0  0  0  0  0  0  0  0  0  0  0  0
    0.8791   -0.2630   -4.4166 H   0  0  0  0  0  0  0  0  0  0  0  0
   -0.2131    1.0669   -3.9591 H   0  0  0  0  0  0  0  0  0  0  0  0
  5  6  2  0  0  0  0
  5  7  1  0  0  0  0
  2  3  1  0  0  0  0
  2  4  1  0  0  0  0
  2  5  1  0  0  0  0
  1  2  1  0  0  0  0
 16 17  2  0  0  0  0
 16 18  1  0  0  0  0
 14 15  1  0  0  0  0
 11 12  1  0  0  0  0
 11 13  1  0  0  0  0
 11 14  1  0  0  0  0
  9 10  1  0  0  0  0
  9 11  1  0  0  0  0
  9 16  1  0  0  0  0
  7  8  1  0  0  0  0
  7  9  1  0  0  0  0
 20 21  1  0  0  0  0
 20 22  1  0  0  0  0
 20 23  1  0  0  0  0
 18 19  1  0  0  0  0
 18 20  1  0  0  0  0
M  END
$$$$
default_name
  -OEChem-01062215323D

 23 22  0     1  0  0  0  0  0999 V2000
   -2.6721   -3.7279    0.7212 H   0  0  0  0  0  0  0  0  0  0  0  0
   -2.6561   -2.6819    0.4162 C   0  0  0  0  0  0  0  0  0  0  0  0
   -3.2401   -2.0889    1.1172 H   0  0  0  0  0  0  0  0  0  0  0  0
   -3.0671   -2.5859   -0.5858 H   0  0  0  0  0  0  0  0  0  0  0  0
   -1.2261   -2.1939    0.4202 C   0  0  0  0  0  0  0  0  0  0  0  0
   -0.3181   -2.9519    0.7312 O   0  0  0  0  0  0  0  0  0  0  0  0
   -1.0281   -0.9259    0.0662 N   0  0  0  0  0  0  0  0  0  0  0  0
   -1.8301   -0.3519   -0.1548 H   0  0  0  0  0  0  0  0  0  0  0  0
    0.2709   -0.2409    0.0912 C   0  0  1  0  0  0  0  0  0  0  0  0
    0.2848    0.4546    0.9307 H   0  0  0  0  0  0  0  0  0  0  0  0
    1.3959   -1.2622    0.3031 C   0  0  0  0  0  0  0  0  0  0  0  0
    2.3423   -0.7323    0.4228 H   0  0  0  0  0  0  0  0  0  0  0  0
    1.1986   -1.8397    1.2081 H   0  0  0  0  0  0  0  0  0  0  0  0
    1.5005   -2.1357   -0.8056 O   0  0  0  0  0  0  0  0  0  0  0  0
    2.3162   -2.6402   -0.7161 H   0  0  0  0  0  0  0  0  0  0  0  0
    0.4805    0.5672   -1.2003 C   0  0  0  0  0  0  0  0  0  0  0  0
    0.9259    1.7141   -1.1443 O   0  0  0  0  0  0  0  0  0  0  0  0
    0.1752   -0.0253   -2.3597 N   0  0  0  0  0  0  0  0  0  0  0  0
   -0.2704   -0.9313   -2.3007 H   0  0  0  0  0  0  0  0  0  0  0  0
    0.3334    0.5907   -3.6757 C   0  0  0  0  0  0  0  0  0  0  0  0
    1.3080    1.0791   -3.7406 H   0  0  0  0  0  0  0  0  0  0  0  0
    0.2584   -0.1663   -4.4568 H   0  0  0  0  0  0  0  0  0  0  0  0
   -0.4446    1.3425   -3.8242 H   0  0  0  0  0  0  0  0  0  0  0  0
  5  6  2  0  0  0  0
  5  7  1  0  0  0  0
  2  3  1  0  0  0  0
  2  4  1  0  0  0  0
  2  5  1  0  0  0  0
  1  2  1  0  0  0  0
 16 17  2  0  0  0  0
 16 18  1  0  0  0  0
 14 15  1  0  0  0  0
 11 12  1  0  0  0  0
 11 13  1  0  0  0  0
 11 14  1  0  0  0  0
  9 10  1  0  0  0  0
  9 11  1  0  0  0  0
  9 16  1  0  0  0  0
  7  8  1  0  0  0  0
  7  9  1  0  0  0  0
 20 21  1  0  0  0  0
 20 22  1  0  0  0  0
 20 23  1  0  0  0  0
 18 19  1  0  0  0  0
 18 20  1  0  0  0  0
M  END
$$$$
default_name
  -OEChem-01062215323D

 23 22  0     1  0  0  0  0  0999 V2000
   -2.6721   -3.7279    0.7212 H   0  0  0  0  0  0  0  0  0  0  0  0
   -2.6561   -2.6819    0.4162 C   0  0  0  0  0  0  0  0  0  0  0  0
   -3.2401   -2.0889    1.1172 H   0  0  0  0  0  0  0  0  0  0  0  0
   -3.0671   -2.5859   -0.5858 H   0  0  0  0  0  0  0  0  0  0  0  0
   -1.2261   -2.1939    0.4202 C   0  0  0  0  0  0  0  0  0  0  0  0
   -0.3181   -2.9519    0.7312 O   0  0  0  0  0  0  0  0  0  0  0  0
   -1.0281   -0.9259    0.0662 N   0  0  0  0  0  0  0  0  0  0  0  0
   -1.8301   -0.3519   -0.1548 H   0  0  0  0  0  0  0  0  0  0  0  0
    0.2709   -0.2409    0.0912 C   0  0  1  0  0  0  0  0  0  0  0  0
    0.2848    0.4546    0.9307 H   0  0  0  0  0  0  0  0  0  0  0  0
    1.3959   -1.2622    0.3031 C   0  0  0  0  0  0  0  0  0  0  0  0
    2.3423   -0.7323    0.4228 H   0  0  0  0  0  0  0  0  0  0  0  0
    1.1986   -1.8397    1.2081 H   0  0  0  0  0  0  0  0  0  0  0  0
    1.5005   -2.1357   -0.8056 O   0  0  0  0  0  0  0  0  0  0  0  0
    2.3162   -2.6402   -0.7161 H   0  0  0  0  0  0  0  0  0  0  0  0
    0.4805    0.5672   -1.2003 C   0  0  0  0  0  0  0  0  0  0  0  0
    1.1704    1.5872   -1.1839 O   0  0  0  0  0  0  0  0  0  0  0  0
   -0.0980    0.1133   -2.3173 N   0  0  0  0  0  0  0  0  0  0  0  0
   -0.7201   -0.6775   -2.2149 H   0  0  0  0  0  0  0  0  0  0  0  0
    0.0165    0.7463   -3.6297 C   0  0  0  0  0  0  0  0  0  0  0  0
    1.0573    1.0165   -3.8205 H   0  0  0  0  0  0  0  0  0  0  0  0
   -0.3256    0.0634   -4.4079 H   0  0  0  0  0  0  0  0  0  0  0  0
   -0.5899    1.6542   -3.6527 H   0  0  0  0  0  0  0  0  0  0  0  0
  5  6  2  0  0  0  0
  5  7  1  0  0  0  0
  2  3  1  0  0  0  0
  2  4  1  0  0  0  0
  2  5  1  0  0  0  0
  1  2  1  0  0  0  0
 16 17  2  0  0  0  0
 16 18  1  0  0  0  0
 14 15  1  0  0  0  0
 11 12  1  0  0  0  0
 11 13  1  0  0  0  0
 11 14  1  0  0  0  0
  9 10  1  0  0  0  0
  9 11  1  0  0  0  0
  9 16  1  0  0  0  0
  7  8  1  0  0  0  0
  7  9  1  0  0  0  0
 20 21  1  0  0  0  0
 20 22  1  0  0  0  0
 20 23  1  0  0  0  0
 18 19  1  0  0  0  0
 18 20  1  0  0  0  0
M  END
$$$$
default_name
  -OEChem-01062215323D

 23 22  0     1  0  0  0  0  0999 V2000
   -2.6721   -3.7279    0.7212 H   0  0  0  0  0  0  0  0  0  0  0  0
   -2.6561   -2.6819    0.4162 C   0  0  0  0  0  0  0  0  0  0  0  0
   -3.2401   -2.0889    1.1172 H   0  0  0  0  0  0  0  0  0  0  0  0
   -3.0671   -2.5859   -0.5858 H   0  0  0  0  0  0  0  0  0  0  0  0
   -1.2261   -2.1939    0.4202 C   0  0  0  0  0  0  0  0  0  0  0  0
   -0.3181   -2.9519    0.7312 O   0  0  0  0  0  0  0  0  0  0  0  0
   -1.0281   -0.9259    0.0662 N   0  0  0  0  0  0  0  0  0  0  0  0
   -1.8301   -0.3519   -0.1548 H   0  0  0  0  0  0  0  0  0  0  0  0
    0.2709   -0.2409    0.0912 C   0  0  1  0  0  0  0  0  0  0  0  0
    0.2848    0.4546    0.9307 H   0  0  0  0  0  0  0  0  0  0  0  0
    1.3959   -1.2622    0.3031 C   0  0  0  0  0  0  0  0  0  0  0  0
    2.3423   -0.7323    0.4228 H   0  0  0  0  0  0  0  0  0  0  0  0
    1.1986   -1.8397    1.2081 H   0  0  0  0  0  0  0  0  0  0  0  0
    1.5005   -2.1357   -0.8056 O   0  0  0  0  0  0  0  0  0  0  0  0
    2.3162   -2.6402   -0.7161 H   0  0  0  0  0  0  0  0  0  0  0  0
    0.4805    0.5672   -1.2003 C   0  0  0  0  0  0  0  0  0  0  0  0
    1.3737    1.4130   -1.2600 O   0  0  0  0  0  0  0  0  0  0  0  0
   -0.3260    0.3051   -2.2344 N   0  0  0  0  0  0  0  0  0  0  0  0
   -1.0875   -0.3377   -2.0619 H   0  0  0  0  0  0  0  0  0  0  0  0
   -0.2496    0.9639   -3.5368 C   0  0  0  0  0  0  0  0  0  0  0  0
    0.7906    1.0133   -3.8658 H   0  0  0  0  0  0  0  0  0  0  0  0
   -0.8331    0.4105   -4.2731 H   0  0  0  0  0  0  0  0  0  0  0  0
   -0.6391    1.9808   -3.4564 H   0  0  0  0  0  0  0  0  0  0  0  0
  5  6  2  0  0  0  0
  5  7  1  0  0  0  0
  2  3  1  0  0  0  0
  2  4  1  0  0  0  0
  2  5  1  0  0  0  0
  1  2  1  0  0  0  0
 16 17  2  0  0  0  0
 16 18  1  0  0  0  0
 14 15  1  0  0  0  0
 11 12  1  0  0  0  0
 11 13  1  0  0  0  0
 11 14  1  0  0  0  0
  9 10  1  0  0  0  0
  9 11  1  0  0  0  0
  9 16  1  0  0  0  0
  7  8  1  0  0  0  0
  7  9  1  0  0  0  0
 20 21  1  0  0  0  0
 20 22  1  0  0  0  0
 20 23  1  0  0  0  0
 18 19  1  0  0  0  0
 18 20  1  0  0  0  0
M  END
$$$$
default_name
  -OEChem-01062215323D

 23 22  0     1  0  0  0  0  0999 V2000
   -2.6721   -3.7279    0.7212 H   0  0  0  0  0  0  0  0  0  0  0  0
   -2.6561   -2.6819    0.4162 C   0  0  0  0  0  0  0  0  0  0  0  0
   -3.2401   -2.0889    1.1172 H   0  0  0  0  0  0  0  0  0  0  0  0
   -3.0671   -2.5859   -0.5858 H   0  0  0  0  0  0  0  0  0  0  0  0
   -1.2261   -2.1939    0.4202 C   0  0  0  0  0  0  0  0  0  0  0  0
   -0.3181   -2.9519    0.7312 O   0  0  0  0  0  0  0  0  0  0  0  0
   -1.0281   -0.9259    0.0662 N   0  0  0  0  0  0  0  0  0  0  0  0
   -1.8301   -0.3519   -0.1548 H   0  0  0  0  0  0  0  0  0  0  0  0
    0.2709   -0.2409    0.0912 C   0  0  1  0  0  0  0  0  0  0  0  0
    0.2848    0.4546    0.9307 H   0  0  0  0  0  0  0  0  0  0  0  0
    1.3959   -1.2622    0.3031 C   0  0  0  0  0  0  0  0  0  0  0  0
    2.3423   -0.7323    0.4228 H   0  0  0  0  0  0  0  0  0  0  0  0
    1.1986   -1.8397    1.2081 H   0  0  0  0  0  0  0  0  0  0  0  0
    1.5005   -2.1357   -0.8056 O   0  0  0  0  0  0  0  0  0  0  0  0
    2.3162   -2.6402   -0.7161 H   0  0  0  0  0  0  0  0  0  0  0  0
    0.4805    0.5672   -1.2003 C   0  0  0  0  0  0  0  0  0  0  0  0
    1.5219    1.2032   -1.3672 O   0  0  0  0  0  0  0  0  0  0  0  0
   -0.4933    0.5369   -2.1164 N   0  0  0  0  0  0  0  0  0  0  0  0
   -1.3478    0.0649   -1.8522 H   0  0  0  0  0  0  0  0  0  0  0  0
   -0.4466    1.2286   -3.4032 C   0  0  0  0  0  0  0  0  0  0  0  0
    0.5262    1.0698   -3.8734 H   0  0  0  0  0  0  0  0  0  0  0  0
   -1.2296    0.8513   -4.0617 H   0  0  0  0  0  0  0  0  0  0  0  0
   -0.5890    2.3001   -3.2484 H   0  0  0  0  0  0  0  0  0  0  0  0
  5  6  2  0  0  0  0
  5  7  1  0  0  0  0
  2  3  1  0  0  0  0
  2  4  1  0  0  0  0
  2  5  1  0  0  0  0
  1  2  1  0  0  0  0
 16 17  2  0  0  0  0
 16 18  1  0  0  0  0
 14 15  1  0  0  0  0
 11 12  1  0  0  0  0
 11 13  1  0  0  0  0
 11 14  1  0  0  0  0
  9 10  1  0  0  0  0
  9 11  1  0  0  0  0
  9 16  1  0  0  0  0
  7  8  1  0  0  0  0
  7  9  1  0  0  0  0
 20 21  1  0  0  0  0
 20 22  1  0  0  0  0
 20 23  1  0  0  0  0
 18 19  1  0  0  0  0
 18 20  1  0  0  0  0
M  END
$$$$
default_name
  -OEChem-01062215323D

 23 22  0     1  0  0  0  0  0999 V2000
   -2.6721   -3.7279    0.7212 H   0  0  0  0  0  0  0  0  0  0  0  0
   -2.6561   -2.6819    0.4162 C   0  0  0  0  0  0  0  0  0  0  0  0
   -3.2401   -2.0889    1.1172 H   0  0  0  0  0  0  0  0  0  0  0  0
   -3.0671   -2.5859   -0.5858 H   0  0  0  0  0  0  0  0  0  0  0  0
   -1.2261   -2.1939    0.4202 C   0  0  0  0  0  0  0  0  0  0  0  0
   -0.3181   -2.9519    0.7312 O   0  0  0  0  0  0  0  0  0  0  0  0
   -1.0281   -0.9259    0.0662 N   0  0  0  0  0  0  0  0  0  0  0  0
   -1.8301   -0.3519   -0.1548 H   0  0  0  0  0  0  0  0  0  0  0  0
    0.2709   -0.2409    0.0912 C   0  0  1  0  0  0  0  0  0  0  0  0
    0.2848    0.4546    0.9307 H   0  0  0  0  0  0  0  0  0  0  0  0
    1.3959   -1.2622    0.3031 C   0  0  0  0  0  0  0  0  0  0  0  0
    2.3423   -0.7323    0.4228 H   0  0  0  0  0  0  0  0  0  0  0  0
    1.1986   -1.8397    1.2081 H   0  0  0  0  0  0  0  0  0  0  0  0
    1.5005   -2.1357   -0.8056 O   0  0  0  0  0  0  0  0  0  0  0  0
    2.3162   -2.6402   -0.7161 H   0  0  0  0  0  0  0  0  0  0  0  0
    0.4805    0.5672   -1.2003 C   0  0  0  0  0  0  0  0  0  0  0  0
    1.6048    0.9721   -1.4984 O   0  0  0  0  0  0  0  0  0  0  0  0
   -0.5884    0.7930   -1.9716 N   0  0  0  0  0  0  0  0  0  0  0  0
   -1.4832    0.5031   -1.6001 H   0  0  0  0  0  0  0  0  0  0  0  0
   -0.5613    1.5224   -3.2379 C   0  0  0  0  0  0  0  0  0  0  0  0
    0.2820    1.1821   -3.8427 H   0  0  0  0  0  0  0  0  0  0  0  0
   -1.4879    1.3558   -3.7879 H   0  0  0  0  0  0  0  0  0  0  0  0
   -0.4429    2.5903   -3.0431 H   0  0  0  0  0  0  0  0  0  0  0  0
  5  6  2  0  0  0  0
  5  7  1  0  0  0  0
  2  3  1  0  0  0  0
  2  4  1  0  0  0  0
  2  5  1  0  0  0  0
  1  2  1  0  0  0  0
 16 17  2  0  0  0  0
 16 18  1  0  0  0  0
 14 15  1  0  0  0  0
 11 12  1  0  0  0  0
 11 13  1  0  0  0  0
 11 14  1  0  0  0  0
  9 10  1  0  0  0  0
  9 11  1  0  0  0  0
  9 16  1  0  0  0  0
  7  8  1  0  0  0  0
  7  9  1  0  0  0  0
 20 21  1  0  0  0  0
 20 22  1  0  0  0  0
 20 23  1  0  0  0  0
 18 19  1  0  0  0  0
 18 20  1  0  0  0  0
M  END
$$$$
default_name
  -OEChem-01062215323D

 23 22  0     1  0  0  0  0  0999 V2000
   -2.6721   -3.7279    0.7212 H   0  0  0  0  0  0  0  0  0  0  0  0
   -2.6561   -2.6819    0.4162 C   0  0  0  0  0  0  0  0  0  0  0  0
   -3.2401   -2.0889    1.1172 H   0  0  0  0  0  0  0  0  0  0  0  0
   -3.0671   -2.5859   -0.5858 H   0  0  0  0  0  0  0  0  0  0  0  0
   -1.2261   -2.1939    0.4202 C   0  0  0  0  0  0  0  0  0  0  0  0
   -0.3181   -2.9519    0.7312 O   0  0  0  0  0  0  0  0  0  0  0  0
   -1.0281   -0.9259    0.0662 N   0  0  0  0  0  0  0  0  0  0  0  0
   -1.8301   -0.3519   -0.1548 H   0  0  0  0  0  0  0  0  0  0  0  0
    0.2709   -0.2409    0.0912 C   0  0  1  0  0  0  0  0  0  0  0  0
    0.2848    0.4546    0.9307 H   0  0  0  0  0  0  0  0  0  0  0  0
    1.3959   -1.2622    0.3031 C   0  0  0  0  0  0  0  0  0  0  0  0
    2.3423   -0.7323    0.4228 H   0  0  0  0  0  0  0  0  0  0  0  0
    1.1986   -1.8397    1.2081 H   0  0  0  0  0  0  0  0  0  0  0  0
    1.5005   -2.1357   -0.8056 O   0  0  0  0  0  0  0  0  0  0  0  0
    2.3162   -2.6402   -0.7161 H   0  0  0  0  0  0  0  0  0  0  0  0
    0.4805    0.5672   -1.2003 C   0  0  0  0  0  0  0  0  0  0  0  0
    1.6168    0.7355   -1.6445 O   0  0  0  0  0  0  0  0  0  0  0  0
   -0.6049    1.0560   -1.8098 N   0  0  0  0  0  0  0  0  0  0  0  0
   -1.4845    0.9468   -1.3226 H   0  0  0  0  0  0  0  0  0  0  0  0
   -0.5857    1.8253   -3.0524 C   0  0  0  0  0  0  0  0  0  0  0  0
    0.0747    1.3426   -3.7760 H   0  0  0  0  0  0  0  0  0  0  0  0
   -1.5906    1.8896   -3.4706 H   0  0  0  0  0  0  0  0  0  0  0  0
   -0.2108    2.8316   -2.8545 H   0  0  0  0  0  0  0  0  0  0  0  0
  5  6  2  0  0  0  0
  5  7  1  0  0  0  0
  2  3  1  0  0  0  0
  2  4  1  0  0  0  0
  2  5  1  0  0  0  0
  1  2  1  0  0  0  0
 16 17  2  0  0  0  0
 16 18  1  0  0  0  0
 14 15  1  0  0  0  0
 11 12  1  0  0  0  0
 11 13  1  0  0  0  0
 11 14  1  0  0  0  0
  9 10  1  0  0  0  0
  9 11  1  0  0  0  0
  9 16  1  0  0  0  0
  7  8  1  0  0  0  0
  7  9  1  0  0  0  0
 20 21  1  0  0  0  0
 20 22  1  0  0  0  0
 20 23  1  0  0  0  0
 18 19  1  0  0  0  0
 18 20  1  0  0  0  0
M  END
$$$$
default_name
  -OEChem-01062215323D

 23 22  0     1  0  0  0  0  0999 V2000
   -2.6721   -3.7279    0.7212 H   0  0  0  0  0  0  0  0  0  0  0  0
   -2.6561   -2.6819    0.4162 C   0  0  0  0  0  0  0  0  0  0  0  0
   -3.2401   -2.0889    1.1172 H   0  0  0  0  0  0  0  0  0  0  0  0
   -3.0671   -2.5859   -0.5858 H   0  0  0  0  0  0  0  0  0  0  0  0
   -1.2261   -2.1939    0.4202 C   0  0  0  0  0  0  0  0  0  0  0  0
   -0.3181   -2.9519    0.7312 O   0  0  0  0  0  0  0  0  0  0  0  0
   -1.0281   -0.9259    0.0662 N   0  0  0  0  0  0  0  0  0  0  0  0
   -1.8301   -0.3519   -0.1548 H   0  0  0  0  0  0  0  0  0  0  0  0
    0.2709   -0.2409    0.0912 C   0  0  1  0  0  0  0  0  0  0  0  0
    0.2848    0.4546    0.9307 H   0  0  0  0  0  0  0  0  0  0  0  0
    1.3959   -1.2622    0.3031 C   0  0  0  0  0  0  0  0  0  0  0  0
    2.3423   -0.7323    0.4228 H   0  0  0  0  0  0  0  0  0  0  0  0
    1.1986   -1.8397    1.2081 H   0  0  0  0  0  0  0  0  0  0  0  0
    1.5005   -2.1357   -0.8056 O   0  0  0  0  0  0  0  0  0  0  0  0
    2.3162   -2.6402   -0.7161 H   0  0  0  0  0  0  0  0  0  0  0  0
    0.4805    0.5672   -1.2003 C   0  0  0  0  0  0  0  0  0  0  0  0
    1.5571    0.5095   -1.7956 O   0  0  0  0  0  0  0  0  0  0  0  0
   -0.5417    1.3079   -1.6419 N   0  0  0  0  0  0  0  0  0  0  0  0
   -1.3515    1.3659   -1.0388 H   0  0  0  0  0  0  0  0  0  0  0  0
   -0.5182    2.1166   -2.8591 C   0  0  0  0  0  0  0  0  0  0  0  0
   -0.0816    1.5403   -3.6776 H   0  0  0  0  0  0  0  0  0  0  0  0
   -1.5306    2.4164   -3.1312 H   0  0  0  0  0  0  0  0  0  0  0  0
    0.0915    3.0076   -2.6953 H   0  0  0  0  0  0  0  0  0  0  0  0
  5  6  2  0  0  0  0
  5  7  1  0  0  0  0
  2  3  1  0  0  0  0
  2  4  1  0  0  0  0
  2  5  1  0  0  0  0
  1  2  1  0  0  0  0
 16 17  2  0  0  0  0
 16 18  1  0  0  0  0
 14 15  1  0  0  0  0
 11 12  1  0  0  0  0
 11 13  1  0  0  0  0
 11 14  1  0  0  0  0
  9 10  1  0  0  0  0
  9 11  1  0  0  0  0
  9 16  1  0  0  0  0
  7  8  1  0  0  0  0
  7  9  1  0  0  0  0
 20 21  1  0  0  0  0
 20 22  1  0  0  0  0
 20 23  1  0  0  0  0
 18 19  1  0  0  0  0
 18 20  1  0  0  0  0
M  END
$$$$
default_name
  -OEChem-01062215323D

 23 22  0     1  0  0  0  0  0999 V2000
   -2.6721   -3.7279    0.7212 H   0  0  0  0  0  0  0  0  0  0  0  0
   -2.6561   -2.6819    0.4162 C   0  0  0  0  0  0  0  0  0  0  0  0
   -3.2401   -2.0889    1.1172 H   0  0  0  0  0  0  0  0  0  0  0  0
   -3.0671   -2.5859   -0.5858 H   0  0  0  0  0  0  0  0  0  0  0  0
   -1.2261   -2.1939    0.4202 C   0  0  0  0  0  0  0  0  0  0  0  0
   -0.3181   -2.9519    0.7312 O   0  0  0  0  0  0  0  0  0  0  0  0
   -1.0281   -0.9259    0.0662 N   0  0  0  0  0  0  0  0  0  0  0  0
   -1.8301   -0.3519   -0.1548 H   0  0  0  0  0  0  0  0  0  0  0  0
    0.2709   -0.2409    0.0912 C   0  0  1  0  0  0  0  0  0  0  0  0
    0.2848    0.4546    0.9307 H   0  0  0  0  0  0  0  0  0  0  0  0
    1.3959   -1.2622    0.3031 C   0  0  0  0  0  0  0  0  0  0  0  0
    2.3423   -0.7323    0.4228 H   0  0  0  0  0  0  0  0  0  0  0  0
    1.1986   -1.8397    1.2081 H   0  0  0  0  0  0  0  0  0  0  0  0
    1.5005   -2.1357   -0.8056 O   0  0  0  0  0  0  0  0  0  0  0  0
    2.3162   -2.6402   -0.7161 H   0  0  0  0  0  0  0  0  0  0  0  0
    0.4805    0.5672   -1.2003 C   0  0  0  0  0  0  0  0  0  0  0  0
    1.4298    0.3095   -1.9414 O   0  0  0  0  0  0  0  0  0  0  0  0
   -0.4030    1.5316   -1.4794 N   0  0  0  0  0  0  0  0  0  0  0  0
   -1.0933    1.7318   -0.7679 H   0  0  0  0  0  0  0  0  0  0  0  0
   -0.3633    2.3765   -2.6714 C   0  0  0  0  0  0  0  0  0  0  0  0
   -0.1762    1.7617   -3.5544 H   0  0  0  0  0  0  0  0  0  0  0  0
   -1.3120    2.9002   -2.7930 H   0  0  0  0  0  0  0  0  0  0  0  0
    0.4434    3.1062   -2.5764 H   0  0  0  0  0  0  0  0  0  0  0  0
  5  6  2  0  0  0  0
  5  7  1  0  0  0  0
  2  3  1  0  0  0  0
  2  4  1  0  0  0  0
  2  5  1  0  0  0  0
  1  2  1  0  0  0  0
 16 17  2  0  0  0  0
 16 18  1  0  0  0  0
 14 15  1  0  0  0  0
 11 12  1  0  0  0  0
 11 13  1  0  0  0  0
 11 14  1  0  0  0  0
  9 10  1  0  0  0  0
  9 11  1  0  0  0  0
  9 16  1  0  0  0  0
  7  8  1  0  0  0  0
  7  9  1  0  0  0  0
 20 21  1  0  0  0  0
 20 22  1  0  0  0  0
 20 23  1  0  0  0  0
 18 19  1  0  0  0  0
 18 20  1  0  0  0  0
M  END
$$$$
default_name
  -OEChem-01062215323D

 23 22  0     1  0  0  0  0  0999 V2000
   -2.6721   -3.7279    0.7212 H   0  0  0  0  0  0  0  0  0  0  0  0
   -2.6561   -2.6819    0.4162 C   0  0  0  0  0  0  0  0  0  0  0  0
   -3.2401   -2.0889    1.1172 H   0  0  0  0  0  0  0  0  0  0  0  0
   -3.0671   -2.5859   -0.5858 H   0  0  0  0  0  0  0  0  0  0  0  0
   -1.2261   -2.1939    0.4202 C   0  0  0  0  0  0  0  0  0  0  0  0
   -0.3181   -2.9519    0.7312 O   0  0  0  0  0  0  0  0  0  0  0  0
   -1.0281   -0.9259    0.0662 N   0  0  0  0  0  0  0  0  0  0  0  0
   -1.8301   -0.3519   -0.1548 H   0  0  0  0  0  0  0  0  0  0  0  0
    0.2709   -0.2409    0.0912 C   0  0  1  0  0  0  0  0  0  0  0  0
    0.2848    0.4546    0.9307 H   0  0  0  0  0  0  0  0  0  0  0  0
    1.3959   -1.2622    0.3031 C   0  0  0  0  0  0  0  0  0  0  0  0
    2.3423   -0.7323    0.4228 H   0  0  0  0  0  0  0  0  0  0  0  0
    1.1986   -1.8397    1.2081 H   0  0  0  0  0  0  0  0  0  0  0  0
    1.5005   -2.1357   -0.8056 O   0  0  0  0  0  0  0  0  0  0  0  0
    2.3162   -2.6402   -0.7161 H   0  0  0  0  0  0  0  0  0  0  0  0
    0.4805    0.5672   -1.2003 C   0  0  0  0  0  0  0  0  0  0  0  0
    1.2435    0.1491   -2.0720 O   0  0  0  0  0  0  0  0  0  0  0  0
   -0.1984    1.7117   -1.3335 N   0  0  0  0  0  0  0  0  0  0  0  0
   -0.7276    2.0196   -0.5285 H   0  0  0  0  0  0  0  0  0  0  0  0
   -0.1318    2.5873   -2.5019 C   0  0  0  0  0  0  0  0  0  0  0  0
   -0.2027    1.9919   -3.4147 H   0  0  0  0  0  0  0  0  0  0  0  0
   -0.9497    3.3080   -2.4790 H   0  0  0  0  0  0  0  0  0  0  0  0
    0.8209    3.1208   -2.5060 H   0  0  0  0  0  0  0  0  0  0  0  0
  5  6  2  0  0  0  0
  5  7  1  0  0  0  0
  2  3  1  0  0  0  0
  2  4  1  0  0  0  0
  2  5  1  0  0  0  0
  1  2  1  0  0  0  0
 16 17  2  0  0  0  0
 16 18  1  0  0  0  0
 14 15  1  0  0  0  0
 11 12  1  0  0  0  0
 11 13  1  0  0  0  0
 11 14  1  0  0  0  0
  9 10  1  0  0  0  0
  9 11  1  0  0  0  0
  9 16  1  0  0  0  0
  7  8  1  0  0  0  0
  7  9  1  0  0  0  0
 20 21  1  0  0  0  0
 20 22  1  0  0  0  0
 20 23  1  0  0  0  0
 18 19  1  0  0  0  0
 18 20  1  0  0  0  0
M  END
$$$$
default_name
  -OEChem-01062215323D

 23 22  0     1  0  0  0  0  0999 V2000
   -2.6721   -3.7279    0.7212 H   0  0  0  0  0  0  0  0  0  0  0  0
   -2.6561   -2.6819    0.4162 C   0  0  0  0  0  0  0  0  0  0  0  0
   -3.2401   -2.0889    1.1172 H   0  0  0  0  0  0  0  0  0  0  0  0
   -3.0671   -2.5859   -0.5858 H   0  0  0  0  0  0  0  0  0  0  0  0
   -1.2261   -2.1939    0.4202 C   0  0  0  0  0  0  0  0  0  0  0  0
   -0.3181   -2.9519    0.7312 O   0  0  0  0  0  0  0  0  0  0  0  0
   -1.0281   -0.9259    0.0662 N   0  0  0  0  0  0  0  0  0  0  0  0
   -1.8301   -0.3519   -0.1548 H   0  0  0  0  0  0  0  0  0  0  0  0
    0.2709   -0.2409    0.0912 C   0  0  1  0  0  0  0  0  0  0  0  0
    0.2848    0.4546    0.9307 H   0  0  0  0  0  0  0  0  0  0  0  0
    1.3959   -1.2622    0.3031 C   0  0  0  0  0  0  0  0  0  0  0  0
    2.3423   -0.7323    0.4228 H   0  0  0  0  0  0  0  0  0  0  0  0
    1.1986   -1.8397    1.2081 H   0  0  0  0  0  0  0  0  0  0  0  0
    1.5005   -2.1357   -0.8056 O   0  0  0  0  0  0  0  0  0  0  0  0
    2.3162   -2.6402   -0.7161 H   0  0  0  0  0  0  0  0  0  0  0  0
    0.4805    0.5672   -1.2003 C   0  0  0  0  0  0  0  0  0  0  0  0
    1.0109    0.0393   -2.1784 O   0  0  0  0  0  0  0  0  0  0  0  0
    0.0583    1.8361   -1.2140 N   0  0  0  0  0  0  0  0  0  0  0  0
   -0.2792    2.2096   -0.3368 H   0  0  0  0  0  0  0  0  0  0  0  0
    0.1608    2.7345   -2.3623 C   0  0  0  0  0  0  0  0  0  0  0  0
   -0.1592    2.2150   -3.2680 H   0  0  0  0  0  0  0  0  0  0  0  0
   -0.4683    3.6121   -2.2106 H   0  0  0  0  0  0  0  0  0  0  0  0
    1.1983    3.0504   -2.4888 H   0  0  0  0  0  0  0  0  0  0  0  0
  5  6  2  0  0  0  0
  5  7  1  0  0  0  0
  2  3  1  0  0  0  0
  2  4  1  0  0  0  0
  2  5  1  0  0  0  0
  1  2  1  0  0  0  0
 16 17  2  0  0  0  0
 16 18  1  0  0  0  0
 14 15  1  0  0  0  0
 11 12  1  0  0  0  0
 11 13  1  0  0  0  0
 11 14  1  0  0  0  0
  9 10  1  0  0  0  0
  9 11  1  0  0  0  0
  9 16  1  0  0  0  0
  7  8  1  0  0  0  0
  7  9  1  0  0  0  0
 20 21  1  0  0  0  0
 20 22  1  0  0  0  0
 20 23  1  0  0  0  0
 18 19  1  0  0  0  0
 18 20  1  0  0  0  0
M  END
$$$$
default_name
  -OEChem-01062215323D

 23 22  0     1  0  0  0  0  0999 V2000
   -2.6721   -3.7279    0.7212 H   0  0  0  0  0  0  0  0  0  0  0  0
   -2.6561   -2.6819    0.4162 C   0  0  0  0  0  0  0  0  0  0  0  0
   -3.2401   -2.0889    1.1172 H   0  0  0  0  0  0  0  0  0  0  0  0
   -3.0671   -2.5859   -0.5858 H   0  0  0  0  0  0  0  0  0  0  0  0
   -1.2261   -2.1939    0.4202 C   0  0  0  0  0  0  0  0  0  0  0  0
   -0.3181   -2.9519    0.7312 O   0  0  0  0  0  0  0  0  0  0  0  0
   -1.0281   -0.9259    0.0662 N   0  0  0  0  0  0  0  0  0  0  0  0
   -1.8301   -0.3519   -0.1548 H   0  0  0  0  0  0  0  0  0  0  0  0
    0.2709   -0.2409    0.0912 C   0  0  1  0  0  0  0  0  0  0  0  0
    0.2848    0.4546    0.9307 H   0  0  0  0  0  0  0  0  0  0  0  0
    1.3959   -1.2622    0.3031 C   0  0  0  0  0  0  0  0  0  0  0  0
    2.3423   -0.7323    0.4228 H   0  0  0  0  0  0  0  0  0  0  0  0
    1.1986   -1.8397    1.2081 H   0  0  0  0  0  0  0  0  0  0  0  0
    1.5005   -2.1357   -0.8056 O   0  0  0  0  0  0  0  0  0  0  0  0
    2.3162   -2.6402   -0.7161 H   0  0  0  0  0  0  0  0  0  0  0  0
    0.4805    0.5672   -1.2003 C   0  0  0  0  0  0  0  0  0  0  0  0
    0.7479   -0.0124   -2.2535 O   0  0  0  0  0  0  0  0  0  0  0  0
    0.3495    1.8962   -1.1291 N   0  0  0  0  0  0  0  0  0  0  0  0
    0.2213    2.2889   -0.2059 H   0  0  0  0  0  0  0  0  0  0  0  0
    0.4943    2.8083   -2.2620 C   0  0  0  0  0  0  0  0  0  0  0  0
   -0.0488    2.4159   -3.1244 H   0  0  0  0  0  0  0  0  0  0  0  0
    0.0992    3.7918   -2.0060 H   0  0  0  0  0  0  0  0  0  0  0  0
    1.5499    2.8997   -2.5260 H   0  0  0  0  0  0  0  0  0  0  0  0
  5  6  2  0  0  0  0
  5  7  1  0  0  0  0
  2  3  1  0  0  0  0
  2  4  1  0  0  0  0
  2  5  1  0  0  0  0
  1  2  1  0  0  0  0
 16 17  2  0  0  0  0
 16 18  1  0  0  0  0
 14 15  1  0  0  0  0
 11 12  1  0  0  0  0
 11 13  1  0  0  0  0
 11 14  1  0  0  0  0
  9 10  1  0  0  0  0
  9 11  1  0  0  0  0
  9 16  1  0  0  0  0
  7  8  1  0  0  0  0
  7  9  1  0  0  0  0
 20 21  1  0  0  0  0
 20 22  1  0  0  0  0
 20 23  1  0  0  0  0
 18 19  1  0  0  0  0
 18 20  1  0  0  0  0
M  END
$$$$
default_name
  -OEChem-01062215323D

 23 22  0     1  0  0  0  0  0999 V2000
   -2.6721   -3.7279    0.7212 H   0  0  0  0  0  0  0  0  0  0  0  0
   -2.6561   -2.6819    0.4162 C   0  0  0  0  0  0  0  0  0  0  0  0
   -3.2401   -2.0889    1.1172 H   0  0  0  0  0  0  0  0  0  0  0  0
   -3.0671   -2.5859   -0.5858 H   0  0  0  0  0  0  0  0  0  0  0  0
   -1.2261   -2.1939    0.4202 C   0  0  0  0  0  0  0  0  0  0  0  0
   -0.3181   -2.9519    0.7312 O   0  0  0  0  0  0  0  0  0  0  0  0
   -1.0281   -0.9259    0.0662 N   0  0  0  0  0  0  0  0  0  0  0  0
   -1.8301   -0.3519   -0.1548 H   0  0  0  0  0  0  0  0  0  0  0  0
    0.2709   -0.2409    0.0912 C   0  0  1  0  0  0  0  0  0  0  0  0
    0.2848    0.4546    0.9307 H   0  0  0  0  0  0  0  0  0  0  0  0
    1.3959   -1.2622    0.3031 C   0  0  0  0  0  0  0  0  0  0  0  0
    2.3423   -0.7323    0.4228 H   0  0  0  0  0  0  0  0  0  0  0  0
    1.1986   -1.8397    1.2081 H   0  0  0  0  0  0  0  0  0  0  0  0
    1.5005   -2.1357   -0.8056 O   0  0  0  0  0  0  0  0  0  0  0  0
    2.3162   -2.6402   -0.7161 H   0  0  0  0  0  0  0  0  0  0  0  0
    0.4805    0.5672   -1.2003 C   0  0  0  0  0  0  0  0  0  0  0  0
    0.4724   -0.0026   -2.2921 O   0  0  0  0  0  0  0  0  0  0  0  0
    0.6554    1.8880   -1.0846 N   0  0  0  0  0  0  0  0  0  0  0  0
    0.7397    2.2521   -0.1448 H   0  0  0  0  0  0  0  0  0  0  0  0
    0.8462    2.8035   -2.2079 C   0  0  0  0  0  0  0  0  0  0  0  0
    0.1211    2.5809   -2.9936 H   0  0  0  0  0  0  0  0  0  0  0  0
    0.7143    3.8348   -1.8793 H   0  0  0  0  0  0  0  0  0  0  0  0
    1.8517    2.6791   -2.6151 H   0  0  0  0  0  0  0  0  0  0  0  0
  5  6  2  0  0  0  0
  5  7  1  0  0  0  0
  2  3  1  0  0  0  0
  2  4  1  0  0  0  0
  2  5  1  0  0  0  0
  1  2  1  0  0  0  0
 16 17  2  0  0  0  0
 16 18  1  0  0  0  0
 14 15  1  0  0  0  0
 11 12  1  0  0  0  0
 11 13  1  0  0  0  0
 11 14  1  0  0  0  0
  9 10  1  0  0  0  0
  9 11  1  0  0  0  0
  9 16  1  0  0  0  0
  7  8  1  0  0  0  0
  7  9  1  0  0  0  0
 20 21  1  0  0  0  0
 20 22  1  0  0  0  0
 20 23  1  0  0  0  0
 18 19  1  0  0  0  0
 18 20  1  0  0  0  0
M  END
$$$$
default_name
  -OEChem-01062215323D

 23 22  0     1  0  0  0  0  0999 V2000
   -2.6721   -3.7279    0.7212 H   0  0  0  0  0  0  0  0  0  0  0  0
   -2.6561   -2.6819    0.4162 C   0  0  0  0  0  0  0  0  0  0  0  0
   -3.2401   -2.0889    1.1172 H   0  0  0  0  0  0  0  0  0  0  0  0
   -3.0671   -2.5859   -0.5858 H   0  0  0  0  0  0  0  0  0  0  0  0
   -1.2261   -2.1939    0.4202 C   0  0  0  0  0  0  0  0  0  0  0  0
   -0.3181   -2.9519    0.7312 O   0  0  0  0  0  0  0  0  0  0  0  0
   -1.0281   -0.9259    0.0662 N   0  0  0  0  0  0  0  0  0  0  0  0
   -1.8301   -0.3519   -0.1548 H   0  0  0  0  0  0  0  0  0  0  0  0
    0.2709   -0.2409    0.0912 C   0  0  1  0  0  0  0  0  0  0  0  0
    0.2848    0.4546    0.9307 H   0  0  0  0  0  0  0  0  0  0  0  0
    1.3959   -1.2622    0.3031 C   0  0  0  0  0  0  0  0  0  0  0  0
    2.3423   -0.7323    0.4228 H   0  0  0  0  0  0  0  0  0  0  0  0
    1.1986   -1.8397    1.2081 H   0  0  0  0  0  0  0  0  0  0  0  0
    1.5005   -2.1357   -0.8056 O   0  0  0  0  0  0  0  0  0  0  0  0
    2.3162   -2.6402   -0.7161 H   0  0  0  0  0  0  0  0  0  0  0  0
    0.4805    0.5672   -1.2003 C   0  0  0  0  0  0  0  0  0  0  0  0
    0.2032    0.0681   -2.2915 O   0  0  0  0  0  0  0  0  0  0  0  0
    0.9551    1.8121   -1.0834 N   0  0  0  0  0  0  0  0  0  0  0  0
    1.2408    2.1018   -0.1575 H   0  0  0  0  0  0  0  0  0  0  0  0
    1.1924    2.7204   -2.2036 C   0  0  0  0  0  0  0  0  0  0  0  0
    0.3388    2.6987   -2.8845 H   0  0  0  0  0  0  0  0  0  0  0  0
    1.3349    3.7381   -1.8390 H   0  0  0  0  0  0  0  0  0  0  0  0
    2.0831    2.4035   -2.7500 H   0  0  0  0  0  0  0  0  0  0  0  0
  5  6  2  0  0  0  0
  5  7  1  0  0  0  0
  2  3  1  0  0  0  0
  2  4  1  0  0  0  0
  2  5  1  0  0  0  0
  1  2  1  0  0  0  0
 16 17  2  0  0  0  0
 16 18  1  0  0  0  0
 14 15  1  0  0  0  0
 11 12  1  0  0  0  0
 11 13  1  0  0  0  0
 11 14  1  0  0  0  0
  9 10  1  0  0  0  0
  9 11  1  0  0  0  0
  9 16  1  0  0  0  0
  7  8  1  0  0  0  0
  7  9  1  0  0  0  0
 20 21  1  0  0  0  0
 20 22  1  0  0  0  0
 20 23  1  0  0  0  0
 18 19  1  0  0  0  0
 18 20  1  0  0  0  0
M  END
$$$$
default_name
  -OEChem-01062215323D

 23 22  0     1  0  0  0  0  0999 V2000
   -2.6721   -3.7279    0.7212 H   0  0  0  0  0  0  0  0  0  0  0  0
   -2.6561   -2.6819    0.4162 C   0  0  0  0  0  0  0  0  0  0  0  0
   -3.2401   -2.0889    1.1172 H   0  0  0  0  0  0  0  0  0  0  0  0
   -3.0671   -2.5859   -0.5858 H   0  0  0  0  0  0  0  0  0  0  0  0
   -1.2261   -2.1939    0.4202 C   0  0  0  0  0  0  0  0  0  0  0  0
   -0.3181   -2.9519    0.7312 O   0  0  0  0  0  0  0  0  0  0  0  0
   -1.0281   -0.9259    0.0662 N   0  0  0  0  0  0  0  0  0  0  0  0
   -1.8301   -0.3519   -0.1548 H   0  0  0  0  0  0  0  0  0  0  0  0
    0.2709   -0.2409    0.0912 C   0  0  1  0  0  0  0  0  0  0  0  0
    0.2848    0.4546    0.9307 H   0  0  0  0  0  0  0  0  0  0  0  0
    1.3959   -1.2622    0.3031 C   0  0  0  0  0  0  0  0  0  0  0  0
    2.3423   -0.7323    0.4228 H   0  0  0  0  0  0  0  0  0  0  0  0
    1.1986   -1.8397    1.2081 H   0  0  0  0  0  0  0  0  0  0  0  0
    1.5005   -2.1357   -0.8056 O   0  0  0  0  0  0  0  0  0  0  0  0
    2.3162   -2.6402   -0.7161 H   0  0  0  0  0  0  0  0  0  0  0  0
    0.4805    0.5672   -1.2003 C   0  0  0  0  0  0  0  0  0  0  0  0
   -0.0413    0.1949   -2.2518 O   0  0  0  0  0  0  0  0  0  0  0  0
    1.2283    1.6735   -1.1258 N   0  0  0  0  0  0  0  0  0  0  0  0
    1.6904    1.8480   -0.2433 H   0  0  0  0  0  0  0  0  0  0  0  0
    1.5093    2.5648   -2.2496 C   0  0  0  0  0  0  0  0  0  0  0  0
    0.5895    2.7613   -2.8046 H   0  0  0  0  0  0  0  0  0  0  0  0
    1.9190    3.5084   -1.8880 H   0  0  0  0  0  0  0  0  0  0  0  0
    2.2284    2.0917   -2.9215 H   0  0  0  0  0  0  0  0  0  0  0  0
  5  6  2  0  0  0  0
  5  7  1  0  0  0  0
  2  3  1  0  0  0  0
  2  4  1  0  0  0  0
  2  5  1  0  0  0  0
  1  2  1  0  0  0  0
 16 17  2  0  0  0  0
 16 18  1  0  0  0  0
 14 15  1  0  0  0  0
 11 12  1  0  0  0  0
 11 13  1  0  0  0  0
 11 14  1  0  0  0  0
  9 10  1  0  0  0  0
  9 11  1  0  0  0  0
  9 16  1  0  0  0  0
  7  8  1  0  0  0  0
  7  9  1  0  0  0  0
 20 21  1  0  0  0  0
 20 22  1  0  0  0  0
 20 23  1  0  0  0  0
 18 19  1  0  0  0  0
 18 20  1  0  0  0  0
M  END
$$$$
default_name
  -OEChem-01062215323D

 23 22  0     1  0  0  0  0  0999 V2000
   -2.6721   -3.7279    0.7212 H   0  0  0  0  0  0  0  0  0  0  0  0
   -2.6561   -2.6819    0.4162 C   0  0  0  0  0  0  0  0  0  0  0  0
   -3.2401   -2.0889    1.1172 H   0  0  0  0  0  0  0  0  0  0  0  0
   -3.0671   -2.5859   -0.5858 H   0  0  0  0  0  0  0  0  0  0  0  0
   -1.2261   -2.1939    0.4202 C   0  0  0  0  0  0  0  0  0  0  0  0
   -0.3181   -2.9519    0.7312 O   0  0  0  0  0  0  0  0  0  0  0  0
   -1.0281   -0.9259    0.0662 N   0  0  0  0  0  0  0  0  0  0  0  0
   -1.8301   -0.3519   -0.1548 H   0  0  0  0  0  0  0  0  0  0  0  0
    0.2709   -0.2409    0.0912 C   0  0  1  0  0  0  0  0  0  0  0  0
    0.2848    0.4546    0.9307 H   0  0  0  0  0  0  0  0  0  0  0  0
    1.3959   -1.2622    0.3031 C   0  0  0  0  0  0  0  0  0  0  0  0
    2.3423   -0.7323    0.4228 H   0  0  0  0  0  0  0  0  0  0  0  0
    1.1986   -1.8397    1.2081 H   0  0  0  0  0  0  0  0  0  0  0  0
    1.5005   -2.1357   -0.8056 O   0  0  0  0  0  0  0  0  0  0  0  0
    2.3162   -2.6402   -0.7161 H   0  0  0  0  0  0  0  0  0  0  0  0
    0.4805    0.5672   -1.2003 C   0  0  0  0  0  0  0  0  0  0  0  0
   -0.2446    0.3692   -2.1758 O   0  0  0  0  0  0  0  0  0  0  0  0
    1.4563    1.4817   -1.2088 N   0  0  0  0  0  0  0  0  0  0  0  0
    2.0579    1.5082   -0.3963 H   0  0  0  0  0  0  0  0  0  0  0  0
    1.7753    2.3472   -2.3425 C   0  0  0  0  0  0  0  0  0  0  0  0
    0.8562    2.7645   -2.7593 H   0  0  0  0  0  0  0  0  0  0  0  0
    2.4265    3.1613   -2.0227 H   0  0  0  0  0  0  0  0  0  0  0  0
    2.2777    1.7651   -3.1178 H   0  0  0  0  0  0  0  0  0  0  0  0
  5  6  2  0  0  0  0
  5  7  1  0  0  0  0
  2  3  1  0  0  0  0
  2  4  1  0  0  0  0
  2  5  1  0  0  0  0
  1  2  1  0  0  0  0
 16 17  2  0  0  0  0
 16 18  1  0  0  0  0
 14 15  1  0  0  0  0
 11 12  1  0  0  0  0
 11 13  1  0  0  0  0
 11 14  1  0  0  0  0
  9 10  1  0  0  0  0
  9 11  1  0  0  0  0
  9 16  1  0  0  0  0
  7  8  1  0  0  0  0
  7  9  1  0  0  0  0
 20 21  1  0  0  0  0
 20 22  1  0  0  0  0
 20 23  1  0  0  0  0
 18 19  1  0  0  0  0
 18 20  1  0  0  0  0
M  END
$$$$
default_name
  -OEChem-01062215323D

 23 22  0     1  0  0  0  0  0999 V2000
   -2.6721   -3.7279    0.7212 H   0  0  0  0  0  0  0  0  0  0  0  0
   -2.6561   -2.6819    0.4162 C   0  0  0  0  0  0  0  0  0  0  0  0
   -3.2401   -2.0889    1.1172 H   0  0  0  0  0  0  0  0  0  0  0  0
   -3.0671   -2.5859   -0.5858 H   0  0  0  0  0  0  0  0  0  0  0  0
   -1.2261   -2.1939    0.4202 C   0  0  0  0  0  0  0  0  0  0  0  0
   -0.3181   -2.9519    0.7312 O   0  0  0  0  0  0  0  0  0  0  0  0
   -1.0281   -0.9259    0.0662 N   0  0  0  0  0  0  0  0  0  0  0  0
   -1.8301   -0.3519   -0.1548 H   0  0  0  0  0  0  0  0  0  0  0  0
    0.2709   -0.2409    0.0912 C   0  0  1  0  0  0  0  0  0  0  0  0
    0.3932    0.2443    1.0598 H   0  0  0  0  0  0  0  0  0  0  0  0
    1.4034   -1.2627   -0.0734 C   0  0  0  0  0  0  0  0  0  0  0  0
    2.3624   -0.7568    0.0499 H   0  0  0  0  0  0  0  0  0  0  0  0
    1.3117   -2.0353    0.6921 H   0  0  0  0  0  0  0  0  0  0  0  0
    1.3643   -1.8574   -1.3571 O   0  0  0  0  0  0  0  0  0  0  0  0
    2.1800   -2.3539   -1.4843 H   0  0  0  0  0  0  0  0  0  0  0  0
    0.3302    0.8448   -0.9963 C   0  0  0  0  0  0  0  0  0  0  0  0
   -0.6417    1.0387   -1.7273 O   0  0  0  0  0  0  0  0  0  0  0  0
    1.4560    1.5593   -1.0993 N   0  0  0  0  0  0  0  0  0  0  0  0
    2.2315    1.2668   -0.5197 H   0  0  0  0  0  0  0  0  0  0  0  0
    1.6710    2.6390   -2.0607 C   0  0  0  0  0  0  0  0  0  0  0  0
    0.7982    3.2951   -2.0812 H   0  0  0  0  0  0  0  0  0  0  0  0
    2.5507    3.2203   -1.7831 H   0  0  0  0  0  0  0  0  0  0  0  0
    1.8151    2.2182   -3.0580 H   0  0  0  0  0  0  0  0  0  0  0  0
  5  6  2  0  0  0  0
  5  7  1  0  0  0  0
  2  3  1  0  0  0  0
  2  4  1  0  0  0  0
  2  5  1  0  0  0  0
  1  2  1  0  0  0  0
 16 17  2  0  0  0  0
 16 18  1  0  0  0  0
 14 15  1  0  0  0  0
 11 12  1  0  0  0  0
 11 13  1  0  0  0  0
 11 14  1  0  0  0  0
  9 10  1  0  0  0  0
  9 11  1  0  0  0  0
  9 16  1  0  0  0  0
  7  8  1  0  0  0  0
  7  9  1  0  0  0  0
 20 21  1  0  0  0  0
 20 22  1  0  0  0  0
 20 23  1  0  0  0  0
 18 19  1  0  0  0  0
 18 20  1  0  0  0  0
M  END
$$$$
default_name
  -OEChem-01062215323D

 23 22  0     1  0  0  0  0  0999 V2000
   -2.6721   -3.7279    0.7212 H   0  0  0  0  0  0  0  0  0  0  0  0
   -2.6561   -2.6819    0.4162 C   0  0  0  0  0  0  0  0  0  0  0  0
   -3.2401   -2.0889    1.1172 H   0  0  0  0  0  0  0  0  0  0  0  0
   -3.0671   -2.5859   -0.5858 H   0  0  0  0  0  0  0  0  0  0  0  0
   -1.2261   -2.1939    0.4202 C   0  0  0  0  0  0  0  0  0  0  0  0
   -0.3181   -2.9519    0.7312 O   0  0  0  0  0  0  0  0  0  0  0  0
   -1.0281   -0.9259    0.0662 N   0  0  0  0  0  0  0  0  0  0  0  0
   -1.8301   -0.3519   -0.1548 H   0  0  0  0  0  0  0  0  0  0  0  0
    0.2709   -0.2409    0.0912 C   0  0  1  0  0  0  0  0  0  0  0  0
    0.3932    0.2443    1.0598 H   0  0  0  0  0  0  0  0  0  0  0  0
    1.4034   -1.2627   -0.0734 C   0  0  0  0  0  0  0  0  0  0  0  0
    2.3624   -0.7568    0.0499 H   0  0  0  0  0  0  0  0  0  0  0  0
    1.3117   -2.0353    0.6921 H   0  0  0  0  0  0  0  0  0  0  0  0
    1.3643   -1.8574   -1.3571 O   0  0  0  0  0  0  0  0  0  0  0  0
    2.1800   -2.3539   -1.4843 H   0  0  0  0  0  0  0  0  0  0  0  0
    0.3302    0.8448   -0.9963 C   0  0  0  0  0  0  0  0  0  0  0  0
   -0.7059    1.2321   -1.5377 O   0  0  0  0  0  0  0  0  0  0  0  0
    1.5304    1.3448   -1.3094 N   0  0  0  0  0  0  0  0  0  0  0  0
    2.3311    0.9005   -0.8800 H   0  0  0  0  0  0  0  0  0  0  0  0
    1.7619    2.3929   -2.3015 C   0  0  0  0  0  0  0  0  0  0  0  0
    1.0358    3.1973   -2.1659 H   0  0  0  0  0  0  0  0  0  0  0  0
    2.7691    2.7966   -2.1942 H   0  0  0  0  0  0  0  0  0  0  0  0
    1.6424    1.9800   -3.3053 H   0  0  0  0  0  0  0  0  0  0  0  0
  5  6  2  0  0  0  0
  5  7  1  0  0  0  0
  2  3  1  0  0  0  0
  2  4  1  0  0  0  0
  2  5  1  0  0  0  0
  1  2  1  0  0  0  0
 16 17  2  0  0  0  0
 16 18  1  0  0  0  0
 14 15  1  0  0  0  0
 11 12  1  0  0  0  0
 11 13  1  0  0  0  0
 11 14  1  0  0  0  0
  9 10  1  0  0  0  0
  9 11  1  0  0  0  0
  9 16  1  0  0  0  0
  7  8  1  0  0  0  0
  7  9  1  0  0  0  0
 20 21  1  0  0  0  0
 20 22  1  0  0  0  0
 20 23  1  0  0  0  0
 18 19  1  0  0  0  0
 18 20  1  0  0  0  0
M  END
$$$$
default_name
  -OEChem-01062215323D

 23 22  0     1  0  0  0  0  0999 V2000
   -2.6721   -3.7279    0.7212 H   0  0  0  0  0  0  0  0  0  0  0  0
   -2.6561   -2.6819    0.4162 C   0  0  0  0  0  0  0  0  0  0  0  0
   -3.2401   -2.0889    1.1172 H   0  0  0  0  0  0  0  0  0  0  0  0
   -3.0671   -2.5859   -0.5858 H   0  0  0  0  0  0  0  0  0  0  0  0
   -1.2261   -2.1939    0.4202 C   0  0  0  0  0  0  0  0  0  0  0  0
   -0.3181   -2.9519    0.7312 O   0  0  0  0  0  0  0  0  0  0  0  0
   -1.0281   -0.9259    0.0662 N   0  0  0  0  0  0  0  0  0  0  0  0
   -1.8301   -0.3519   -0.1548 H   0  0  0  0  0  0  0  0  0  0  0  0
    0.2709   -0.2409    0.0912 C   0  0  1  0  0  0  0  0  0  0  0  0
    0.3932    0.2443    1.0598 H   0  0  0  0  0  0  0  0  0  0  0  0
    1.4034   -1.2627   -0.0734 C   0  0  0  0  0  0  0  0  0  0  0  0
    2.3624   -0.7568    0.0499 H   0  0  0  0  0  0  0  0  0  0  0  0
    1.3117   -2.0353    0.6921 H   0  0  0  0  0  0  0  0  0  0  0  0
    1.3643   -1.8574   -1.3571 O   0  0  0  0  0  0  0  0  0  0  0  0
    2.1800   -2.3539   -1.4843 H   0  0  0  0  0  0  0  0  0  0  0  0
    0.3302    0.8448   -0.9963 C   0  0  0  0  0  0  0  0  0  0  0  0
   -0.6978    1.4288   -1.3409 O   0  0  0  0  0  0  0  0  0  0  0  0
    1.5246    1.1262   -1.5280 N   0  0  0  0  0  0  0  0  0  0  0  0
    2.2944    0.5321   -1.2499 H   0  0  0  0  0  0  0  0  0  0  0  0
    1.7607    2.1410   -2.5530 C   0  0  0  0  0  0  0  0  0  0  0  0
    1.2319    3.0602   -2.2921 H   0  0  0  0  0  0  0  0  0  0  0  0
    2.8274    2.3515   -2.6354 H   0  0  0  0  0  0  0  0  0  0  0  0
    1.3868    1.7840   -3.5149 H   0  0  0  0  0  0  0  0  0  0  0  0
  5  6  2  0  0  0  0
  5  7  1  0  0  0  0
  2  3  1  0  0  0  0
  2  4  1  0  0  0  0
  2  5  1  0  0  0  0
  1  2  1  0  0  0  0
 16 17  2  0  0  0  0
 16 18  1  0  0  0  0
 14 15  1  0  0  0  0
 11 12  1  0  0  0  0
 11 13  1  0  0  0  0
 11 14  1  0  0  0  0
  9 10  1  0  0  0  0
  9 11  1  0  0  0  0
  9 16  1  0  0  0  0
  7  8  1  0  0  0  0
  7  9  1  0  0  0  0
 20 21  1  0  0  0  0
 20 22  1  0  0  0  0
 20 23  1  0  0  0  0
 18 19  1  0  0  0  0
 18 20  1  0  0  0  0
M  END
$$$$
default_name
  -OEChem-01062215323D

 23 22  0     1  0  0  0  0  0999 V2000
   -2.6721   -3.7279    0.7212 H   0  0  0  0  0  0  0  0  0  0  0  0
   -2.6561   -2.6819    0.4162 C   0  0  0  0  0  0  0  0  0  0  0  0
   -3.2401   -2.0889    1.1172 H   0  0  0  0  0  0  0  0  0  0  0  0
   -3.0671   -2.5859   -0.5858 H   0  0  0  0  0  0  0  0  0  0  0  0
   -1.2261   -2.1939    0.4202 C   0  0  0  0  0  0  0  0  0  0  0  0
   -0.3181   -2.9519    0.7312 O   0  0  0  0  0  0  0  0  0  0  0  0
   -1.0281   -0.9259    0.0662 N   0  0  0  0  0  0  0  0  0  0  0  0
   -1.8301   -0.3519   -0.1548 H   0  0  0  0  0  0  0  0  0  0  0  0
    0.2709   -0.2409    0.0912 C   0  0  1  0  0  0  0  0  0  0  0  0
    0.3932    0.2443    1.0598 H   0  0  0  0  0  0  0  0  0  0  0  0
    1.4034   -1.2627   -0.0734 C   0  0  0  0  0  0  0  0  0  0  0  0
    2.3624   -0.7568    0.0499 H   0  0  0  0  0  0  0  0  0  0  0  0
    1.3117   -2.0353    0.6921 H   0  0  0  0  0  0  0  0  0  0  0  0
    1.3643   -1.8574   -1.3571 O   0  0  0  0  0  0  0  0  0  0  0  0
    2.1800   -2.3539   -1.4843 H   0  0  0  0  0  0  0  0  0  0  0  0
    0.3302    0.8448   -0.9963 C   0  0  0  0  0  0  0  0  0  0  0  0
   -0.6181    1.6153   -1.1504 O   0  0  0  0  0  0  0  0  0  0  0  0
    1.4391    0.9182   -1.7403 N   0  0  0  0  0  0  0  0  0  0  0  0
    2.1240    0.1866   -1.6041 H   0  0  0  0  0  0  0  0  0  0  0  0
    1.6674    1.9004   -2.7983 C   0  0  0  0  0  0  0  0  0  0  0  0
    1.3732    2.8931   -2.4512 H   0  0  0  0  0  0  0  0  0  0  0  0
    2.7216    1.9152   -3.0767 H   0  0  0  0  0  0  0  0  0  0  0  0
    1.0658    1.6435   -3.6727 H   0  0  0  0  0  0  0  0  0  0  0  0
  5  6  2  0  0  0  0
  5  7  1  0  0  0  0
  2  3  1  0  0  0  0
  2  4  1  0  0  0  0
  2  5  1  0  0  0  0
  1  2  1  0  0  0  0
 16 17  2  0  0  0  0
 16 18  1  0  0  0  0
 14 15  1  0  0  0  0
 11 12  1  0  0  0  0
 11 13  1  0  0  0  0
 11 14  1  0  0  0  0
  9 10  1  0  0  0  0
  9 11  1  0  0  0  0
  9 16  1  0  0  0  0
  7  8  1  0  0  0  0
  7  9  1  0  0  0  0
 20 21  1  0  0  0  0
 20 22  1  0  0  0  0
 20 23  1  0  0  0  0
 18 19  1  0  0  0  0
 18 20  1  0  0  0  0
M  END
$$$$
default_name
  -OEChem-01062215323D

 23 22  0     1  0  0  0  0  0999 V2000
   -2.6721   -3.7279    0.7212 H   0  0  0  0  0  0  0  0  0  0  0  0
   -2.6561   -2.6819    0.4162 C   0  0  0  0  0  0  0  0  0  0  0  0
   -3.2401   -2.0889    1.1172 H   0  0  0  0  0  0  0  0  0  0  0  0
   -3.0671   -2.5859   -0.5858 H   0  0  0  0  0  0  0  0  0  0  0  0
   -1.2261   -2.1939    0.4202 C   0  0  0  0  0  0  0  0  0  0  0  0
   -0.3181   -2.9519    0.7312 O   0  0  0  0  0  0  0  0  0  0  0  0
   -1.0281   -0.9259    0.0662 N   0  0  0  0  0  0  0  0  0  0  0  0
   -1.8301   -0.3519   -0.1548 H   0  0  0  0  0  0  0  0  0  0  0  0
    0.2709   -0.2409    0.0912 C   0  0  1  0  0  0  0  0  0  0  0  0
    0.3932    0.2443    1.0598 H   0  0  0  0  0  0  0  0  0  0  0  0
    1.4034   -1.2627   -0.0734 C   0  0  0  0  0  0  0  0  0  0  0  0
    2.3624   -0.7568    0.0499 H   0  0  0  0  0  0  0  0  0  0  0  0
    1.3117   -2.0353    0.6921 H   0  0  0  0  0  0  0  0  0  0  0  0
    1.3643   -1.8574   -1.3571 O   0  0  0  0  0  0  0  0  0  0  0  0
    2.1800   -2.3539   -1.4843 H   0  0  0  0  0  0  0  0  0  0  0  0
    0.3302    0.8448   -0.9963 C   0  0  0  0  0  0  0  0  0  0  0  0
   -0.4721    1.7790   -0.9790 O   0  0  0  0  0  0  0  0  0  0  0  0
    1.2796    0.7351   -1.9318 N   0  0  0  0  0  0  0  0  0  0  0  0
    1.8314   -0.1124   -1.9185 H   0  0  0  0  0  0  0  0  0  0  0  0
    1.4885    1.6875   -3.0206 C   0  0  0  0  0  0  0  0  0  0  0  0
    1.4500    2.7074   -2.6323 H   0  0  0  0  0  0  0  0  0  0  0  0
    2.4589    1.5177   -3.4879 H   0  0  0  0  0  0  0  0  0  0  0  0
    0.7011    1.5682   -3.7678 H   0  0  0  0  0  0  0  0  0  0  0  0
  5  6  2  0  0  0  0
  5  7  1  0  0  0  0
  2  3  1  0  0  0  0
  2  4  1  0  0  0  0
  2  5  1  0  0  0  0
  1  2  1  0  0  0  0
 16 17  2  0  0  0  0
 16 18  1  0  0  0  0
 14 15  1  0  0  0  0
 11 12  1  0  0  0  0
 11 13  1  0  0  0  0
 11 14  1  0  0  0  0
  9 10  1  0  0  0  0
  9 11  1  0  0  0  0
  9 16  1  0  0  0  0
  7  8  1  0  0  0  0
  7  9  1  0  0  0  0
 20 21  1  0  0  0  0
 20 22  1  0  0  0  0
 20 23  1  0  0  0  0
 18 19  1  0  0  0  0
 18 20  1  0  0  0  0
M  END
$$$$
default_name
  -OEChem-01062215323D

 23 22  0     1  0  0  0  0  0999 V2000
   -2.6721   -3.7279    0.7212 H   0  0  0  0  0  0  0  0  0  0  0  0
   -2.6561   -2.6819    0.4162 C   0  0  0  0  0  0  0  0  0  0  0  0
   -3.2401   -2.0889    1.1172 H   0  0  0  0  0  0  0  0  0  0  0  0
   -3.0671   -2.5859   -0.5858 H   0  0  0  0  0  0  0  0  0  0  0  0
   -1.2261   -2.1939    0.4202 C   0  0  0  0  0  0  0  0  0  0  0  0
   -0.3181   -2.9519    0.7312 O   0  0  0  0  0  0  0  0  0  0  0  0
   -1.0281   -0.9259    0.0662 N   0  0  0  0  0  0  0  0  0  0  0  0
   -1.8301   -0.3519   -0.1548 H   0  0  0  0  0  0  0  0  0  0  0  0
    0.2709   -0.2409    0.0912 C   0  0  1  0  0  0  0  0  0  0  0  0
    0.3932    0.2443    1.0598 H   0  0  0  0  0  0  0  0  0  0  0  0
    1.4034   -1.2627   -0.0734 C   0  0  0  0  0  0  0  0  0  0  0  0
    2.3624   -0.7568    0.0499 H   0  0  0  0  0  0  0  0  0  0  0  0
    1.3117   -2.0353    0.6921 H   0  0  0  0  0  0  0  0  0  0  0  0
    1.3643   -1.8574   -1.3571 O   0  0  0  0  0  0  0  0  0  0  0  0
    2.1800   -2.3539   -1.4843 H   0  0  0  0  0  0  0  0  0  0  0  0
    0.3302    0.8448   -0.9963 C   0  0  0  0  0  0  0  0  0  0  0  0
   -0.2698    1.9087   -0.8385 O   0  0  0  0  0  0  0  0  0  0  0  0
    1.0571    0.5894   -2.0894 N   0  0  0  0  0  0  0  0  0  0  0  0
    1.4366   -0.3445   -2.1718 H   0  0  0  0  0  0  0  0  0  0  0  0
    1.2361    1.5168   -3.2048 C   0  0  0  0  0  0  0  0  0  0  0  0
    1.4571    2.5159   -2.8232 H   0  0  0  0  0  0  0  0  0  0  0  0
    2.0573    1.1858   -3.8412 H   0  0  0  0  0  0  0  0  0  0  0  0
    0.3177    1.5631   -3.7938 H   0  0  0  0  0  0  0  0  0  0  0  0
  5  6  2  0  0  0  0
  5  7  1  0  0  0  0
  2  3  1  0  0  0  0
  2  4  1  0  0  0  0
  2  5  1  0  0  0  0
  1  2  1  0  0  0  0
 16 17  2  0  0  0  0
 16 18  1  0  0  0  0
 14 15  1  0  0  0  0
 11 12  1  0  0  0  0
 11 13  1  0  0  0  0
 11 14  1  0  0  0  0
  9 10  1  0  0  0  0
  9 11  1  0  0  0  0
  9 16  1  0  0  0  0
  7  8  1  0  0  0  0
  7  9  1  0  0  0  0
 20 21  1  0  0  0  0
 20 22  1  0  0  0  0
 20 23  1  0  0  0  0
 18 19  1  0  0  0  0
 18 20  1  0  0  0  0
M  END
$$$$
default_name
  -OEChem-01062215323D

 23 22  0     1  0  0  0  0  0999 V2000
   -2.6721   -3.7279    0.7212 H   0  0  0  0  0  0  0  0  0  0  0  0
   -2.6561   -2.6819    0.4162 C   0  0  0  0  0  0  0  0  0  0  0  0
   -3.2401   -2.0889    1.1172 H   0  0  0  0  0  0  0  0  0  0  0  0
   -3.0671   -2.5859   -0.5858 H   0  0  0  0  0  0  0  0  0  0  0  0
   -1.2261   -2.1939    0.4202 C   0  0  0  0  0  0  0  0  0  0  0  0
   -0.3181   -2.9519    0.7312 O   0  0  0  0  0  0  0  0  0  0  0  0
   -1.0281   -0.9259    0.0662 N   0  0  0  0  0  0  0  0  0  0  0  0
   -1.8301   -0.3519   -0.1548 H   0  0  0  0  0  0  0  0  0  0  0  0
    0.2709   -0.2409    0.0912 C   0  0  1  0  0  0  0  0  0  0  0  0
    0.3932    0.2443    1.0598 H   0  0  0  0  0  0  0  0  0  0  0  0
    1.4034   -1.2627   -0.0734 C   0  0  0  0  0  0  0  0  0  0  0  0
    2.3624   -0.7568    0.0499 H   0  0  0  0  0  0  0  0  0  0  0  0
    1.3117   -2.0353    0.6921 H   0  0  0  0  0  0  0  0  0  0  0  0
    1.3643   -1.8574   -1.3571 O   0  0  0  0  0  0  0  0  0  0  0  0
    2.1800   -2.3539   -1.4843 H   0  0  0  0  0  0  0  0  0  0  0  0
    0.3302    0.8448   -0.9963 C   0  0  0  0  0  0  0  0  0  0  0  0
   -0.0250    1.9955   -0.7385 O   0  0  0  0  0  0  0  0  0  0  0  0
    0.7867    0.4909   -2.2025 N   0  0  0  0  0  0  0  0  0  0  0  0
    0.9664   -0.4939   -2.3466 H   0  0  0  0  0  0  0  0  0  0  0  0
    0.9274    1.4000   -3.3383 C   0  0  0  0  0  0  0  0  0  0  0  0
    1.3940    2.3314   -3.0108 H   0  0  0  0  0  0  0  0  0  0  0  0
    1.5441    0.9423   -4.1123 H   0  0  0  0  0  0  0  0  0  0  0  0
   -0.0583    1.6286   -3.7489 H   0  0  0  0  0  0  0  0  0  0  0  0
  5  6  2  0  0  0  0
  5  7  1  0  0  0  0
  2  3  1  0  0  0  0
  2  4  1  0  0  0  0
  2  5  1  0  0  0  0
  1  2  1  0  0  0  0
 16 17  2  0  0  0  0
 16 18  1  0  0  0  0
 14 15  1  0  0  0  0
 11 12  1  0  0  0  0
 11 13  1  0  0  0  0
 11 14  1  0  0  0  0
  9 10  1  0  0  0  0
  9 11  1  0  0  0  0
  9 16  1  0  0  0  0
  7  8  1  0  0  0  0
  7  9  1  0  0  0  0
 20 21  1  0  0  0  0
 20 22  1  0  0  0  0
 20 23  1  0  0  0  0
 18 19  1  0  0  0  0
 18 20  1  0  0  0  0
M  END
$$$$
default_name
  -OEChem-01062215323D

 23 22  0     1  0  0  0  0  0999 V2000
   -2.6721   -3.7279    0.7212 H   0  0  0  0  0  0  0  0  0  0  0  0
   -2.6561   -2.6819    0.4162 C   0  0  0  0  0  0  0  0  0  0  0  0
   -3.2401   -2.0889    1.1172 H   0  0  0  0  0  0  0  0  0  0  0  0
   -3.0671   -2.5859   -0.5858 H   0  0  0  0  0  0  0  0  0  0  0  0
   -1.2261   -2.1939    0.4202 C   0  0  0  0  0  0  0  0  0  0  0  0
   -0.3181   -2.9519    0.7312 O   0  0  0  0  0  0  0  0  0  0  0  0
   -1.0281   -0.9259    0.0662 N   0  0  0  0  0  0  0  0  0  0  0  0
   -1.8301   -0.3519   -0.1548 H   0  0  0  0  0  0  0  0  0  0  0  0
    0.2709   -0.2409    0.0912 C   0  0  1  0  0  0  0  0  0  0  0  0
    0.3932    0.2443    1.0598 H   0  0  0  0  0  0  0  0  0  0  0  0
    1.4034   -1.2627   -0.0734 C   0  0  0  0  0  0  0  0  0  0  0  0
    2.3624   -0.7568    0.0499 H   0  0  0  0  0  0  0  0  0  0  0  0
    1.3117   -2.0353    0.6921 H   0  0  0  0  0  0  0  0  0  0  0  0
    1.3643   -1.8574   -1.3571 O   0  0  0  0  0  0  0  0  0  0  0  0
    2.1800   -2.3539   -1.4843 H   0  0  0  0  0  0  0  0  0  0  0  0
    0.3302    0.8448   -0.9963 C   0  0  0  0  0  0  0  0  0  0  0  0
    0.2456    2.0335   -0.6857 O   0  0  0  0  0  0  0  0  0  0  0  0
    0.4867    0.4464   -2.2633 N   0  0  0  0  0  0  0  0  0  0  0  0
    0.4530   -0.5504   -2.4310 H   0  0  0  0  0  0  0  0  0  0  0  0
    0.5834    1.3450   -3.4120 C   0  0  0  0  0  0  0  0  0  0  0  0
    1.2651    2.1667   -3.1823 H   0  0  0  0  0  0  0  0  0  0  0  0
    0.9542    0.8037   -4.2828 H   0  0  0  0  0  0  0  0  0  0  0  0
   -0.4013    1.7603   -3.6361 H   0  0  0  0  0  0  0  0  0  0  0  0
  5  6  2  0  0  0  0
  5  7  1  0  0  0  0
  2  3  1  0  0  0  0
  2  4  1  0  0  0  0
  2  5  1  0  0  0  0
  1  2  1  0  0  0  0
 16 17  2  0  0  0  0
 16 18  1  0  0  0  0
 14 15  1  0  0  0  0
 11 12  1  0  0  0  0
 11 13  1  0  0  0  0
 11 14  1  0  0  0  0
  9 10  1  0  0  0  0
  9 11  1  0  0  0  0
  9 16  1  0  0  0  0
  7  8  1  0  0  0  0
  7  9  1  0  0  0  0
 20 21  1  0  0  0  0
 20 22  1  0  0  0  0
 20 23  1  0  0  0  0
 18 19  1  0  0  0  0
 18 20  1  0  0  0  0
M  END
$$$$
default_name
  -OEChem-01062215323D

 23 22  0     1  0  0  0  0  0999 V2000
   -2.6721   -3.7279    0.7212 H   0  0  0  0  0  0  0  0  0  0  0  0
   -2.6561   -2.6819    0.4162 C   0  0  0  0  0  0  0  0  0  0  0  0
   -3.2401   -2.0889    1.1172 H   0  0  0  0  0  0  0  0  0  0  0  0
   -3.0671   -2.5859   -0.5858 H   0  0  0  0  0  0  0  0  0  0  0  0
   -1.2261   -2.1939    0.4202 C   0  0  0  0  0  0  0  0  0  0  0  0
   -0.3181   -2.9519    0.7312 O   0  0  0  0  0  0  0  0  0  0  0  0
   -1.0281   -0.9259    0.0662 N   0  0  0  0  0  0  0  0  0  0  0  0
   -1.8301   -0.3519   -0.1548 H   0  0  0  0  0  0  0  0  0  0  0  0
    0.2709   -0.2409    0.0912 C   0  0  1  0  0  0  0  0  0  0  0  0
    0.3932    0.2443    1.0598 H   0  0  0  0  0  0  0  0  0  0  0  0
    1.4034   -1.2627   -0.0734 C   0  0  0  0  0  0  0  0  0  0  0  0
    2.3624   -0.7568    0.0499 H   0  0  0  0  0  0  0  0  0  0  0  0
    1.3117   -2.0353    0.6921 H   0  0  0  0  0  0  0  0  0  0  0  0
    1.3643   -1.8574   -1.3571 O   0  0  0  0  0  0  0  0  0  0  0  0
    2.1800   -2.3539   -1.4843 H   0  0  0  0  0  0  0  0  0  0  0  0
    0.3302    0.8448   -0.9963 C   0  0  0  0  0  0  0  0  0  0  0  0
    0.5236    2.0203   -0.6838 O   0  0  0  0  0  0  0  0  0  0  0  0
    0.1778    0.4589   -2.2677 N   0  0  0  0  0  0  0  0  0  0  0  0
   -0.0686   -0.5102   -2.4194 H   0  0  0  0  0  0  0  0  0  0  0  0
    0.2277    1.3555   -3.4208 C   0  0  0  0  0  0  0  0  0  0  0  0
    1.0790    2.0329   -3.3260 H   0  0  0  0  0  0  0  0  0  0  0  0
    0.3280    0.7795   -4.3412 H   0  0  0  0  0  0  0  0  0  0  0  0
   -0.6879    1.9491   -3.4632 H   0  0  0  0  0  0  0  0  0  0  0  0
  5  6  2  0  0  0  0
  5  7  1  0  0  0  0
  2  3  1  0  0  0  0
  2  4  1  0  0  0  0
  2  5  1  0  0  0  0
  1  2  1  0  0  0  0
 16 17  2  0  0  0  0
 16 18  1  0  0  0  0
 14 15  1  0  0  0  0
 11 12  1  0  0  0  0
 11 13  1  0  0  0  0
 11 14  1  0  0  0  0
  9 10  1  0  0  0  0
  9 11  1  0  0  0  0
  9 16  1  0  0  0  0
  7  8  1  0  0  0  0
  7  9  1  0  0  0  0
 20 21  1  0  0  0  0
 20 22  1  0  0  0  0
 20 23  1  0  0  0  0
 18 19  1  0  0  0  0
 18 20  1  0  0  0  0
M  END
$$$$
default_name
  -OEChem-01062215323D

 23 22  0     1  0  0  0  0  0999 V2000
   -2.6721   -3.7279    0.7212 H   0  0  0  0  0  0  0  0  0  0  0  0
   -2.6561   -2.6819    0.4162 C   0  0  0  0  0  0  0  0  0  0  0  0
   -3.2401   -2.0889    1.1172 H   0  0  0  0  0  0  0  0  0  0  0  0
   -3.0671   -2.5859   -0.5858 H   0  0  0  0  0  0  0  0  0  0  0  0
   -1.2261   -2.1939    0.4202 C   0  0  0  0  0  0  0  0  0  0  0  0
   -0.3181   -2.9519    0.7312 O   0  0  0  0  0  0  0  0  0  0  0  0
   -1.0281   -0.9259    0.0662 N   0  0  0  0  0  0  0  0  0  0  0  0
   -1.8301   -0.3519   -0.1548 H   0  0  0  0  0  0  0  0  0  0  0  0
    0.2709   -0.2409    0.0912 C   0  0  1  0  0  0  0  0  0  0  0  0
    0.3932    0.2443    1.0598 H   0  0  0  0  0  0  0  0  0  0  0  0
    1.4034   -1.2627   -0.0734 C   0  0  0  0  0  0  0  0  0  0  0  0
    2.3624   -0.7568    0.0499 H   0  0  0  0  0  0  0  0  0  0  0  0
    1.3117   -2.0353    0.6921 H   0  0  0  0  0  0  0  0  0  0  0  0
    1.3643   -1.8574   -1.3571 O   0  0  0  0  0  0  0  0  0  0  0  0
    2.1800   -2.3539   -1.4843 H   0  0  0  0  0  0  0  0  0  0  0  0
    0.3302    0.8448   -0.9963 C   0  0  0  0  0  0  0  0  0  0  0  0
    0.7901    1.9565   -0.7329 O   0  0  0  0  0  0  0  0  0  0  0  0
   -0.1192    0.5276   -2.2153 N   0  0  0  0  0  0  0  0  0  0  0  0
   -0.5630   -0.3760   -2.3124 H   0  0  0  0  0  0  0  0  0  0  0  0
   -0.1157    1.4309   -3.3643 C   0  0  0  0  0  0  0  0  0  0  0  0
    0.8486    1.9391   -3.4322 H   0  0  0  0  0  0  0  0  0  0  0  0
   -0.2921    0.8713   -4.2833 H   0  0  0  0  0  0  0  0  0  0  0  0
   -0.8986    2.1822   -3.2420 H   0  0  0  0  0  0  0  0  0  0  0  0
  5  6  2  0  0  0  0
  5  7  1  0  0  0  0
  2  3  1  0  0  0  0
  2  4  1  0  0  0  0
  2  5  1  0  0  0  0
  1  2  1  0  0  0  0
 16 17  2  0  0  0  0
 16 18  1  0  0  0  0
 14 15  1  0  0  0  0
 11 12  1  0  0  0  0
 11 13  1  0  0  0  0
 11 14  1  0  0  0  0
  9 10  1  0  0  0  0
  9 11  1  0  0  0  0
  9 16  1  0  0  0  0
  7  8  1  0  0  0  0
  7  9  1  0  0  0  0
 20 21  1  0  0  0  0
 20 22  1  0  0  0  0
 20 23  1  0  0  0  0
 18 19  1  0  0  0  0
 18 20  1  0  0  0  0
M  END
$$$$
default_name
  -OEChem-01062215323D

 23 22  0     1  0  0  0  0  0999 V2000
   -2.6721   -3.7279    0.7212 H   0  0  0  0  0  0  0  0  0  0  0  0
   -2.6561   -2.6819    0.4162 C   0  0  0  0  0  0  0  0  0  0  0  0
   -3.2401   -2.0889    1.1172 H   0  0  0  0  0  0  0  0  0  0  0  0
   -3.0671   -2.5859   -0.5858 H   0  0  0  0  0  0  0  0  0  0  0  0
   -1.2261   -2.1939    0.4202 C   0  0  0  0  0  0  0  0  0  0  0  0
   -0.3181   -2.9519    0.7312 O   0  0  0  0  0  0  0  0  0  0  0  0
   -1.0281   -0.9259    0.0662 N   0  0  0  0  0  0  0  0  0  0  0  0
   -1.8301   -0.3519   -0.1548 H   0  0  0  0  0  0  0  0  0  0  0  0
    0.2709   -0.2409    0.0912 C   0  0  1  0  0  0  0  0  0  0  0  0
    0.3932    0.2443    1.0598 H   0  0  0  0  0  0  0  0  0  0  0  0
    1.4034   -1.2627   -0.0734 C   0  0  0  0  0  0  0  0  0  0  0  0
    2.3624   -0.7568    0.0499 H   0  0  0  0  0  0  0  0  0  0  0  0
    1.3117   -2.0353    0.6921 H   0  0  0  0  0  0  0  0  0  0  0  0
    1.3643   -1.8574   -1.3571 O   0  0  0  0  0  0  0  0  0  0  0  0
    2.1800   -2.3539   -1.4843 H   0  0  0  0  0  0  0  0  0  0  0  0
    0.3302    0.8448   -0.9963 C   0  0  0  0  0  0  0  0  0  0  0  0
    1.0268    1.8466   -0.8297 O   0  0  0  0  0  0  0  0  0  0  0  0
   -0.3838    0.6477   -2.1098 N   0  0  0  0  0  0  0  0  0  0  0  0
   -0.9965   -0.1569   -2.1173 H   0  0  0  0  0  0  0  0  0  0  0  0
   -0.4232    1.5660   -3.2462 C   0  0  0  0  0  0  0  0  0  0  0  0
    0.5894    1.8918   -3.4936 H   0  0  0  0  0  0  0  0  0  0  0  0
   -0.8636    1.0729   -4.1132 H   0  0  0  0  0  0  0  0  0  0  0  0
   -1.0190    2.4438   -2.9875 H   0  0  0  0  0  0  0  0  0  0  0  0
  5  6  2  0  0  0  0
  5  7  1  0  0  0  0
  2  3  1  0  0  0  0
  2  4  1  0  0  0  0
  2  5  1  0  0  0  0
  1  2  1  0  0  0  0
 16 17  2  0  0  0  0
 16 18  1  0  0  0  0
 14 15  1  0  0  0  0
 11 12  1  0  0  0  0
 11 13  1  0  0  0  0
 11 14  1  0  0  0  0
  9 10  1  0  0  0  0
  9 11  1  0  0  0  0
  9 16  1  0  0  0  0
  7  8  1  0  0  0  0
  7  9  1  0  0  0  0
 20 21  1  0  0  0  0
 20 22  1  0  0  0  0
 20 23  1  0  0  0  0
 18 19  1  0  0  0  0
 18 20  1  0  0  0  0
M  END
$$$$
default_name
  -OEChem-01062215323D

 23 22  0     1  0  0  0  0  0999 V2000
   -2.6721   -3.7279    0.7212 H   0  0  0  0  0  0  0  0  0  0  0  0
   -2.6561   -2.6819    0.4162 C   0  0  0  0  0  0  0  0  0  0  0  0
   -3.2401   -2.0889    1.1172 H   0  0  0  0  0  0  0  0  0  0  0  0
   -3.0671   -2.5859   -0.5858 H   0  0  0  0  0  0  0  0  0  0  0  0
   -1.2261   -2.1939    0.4202 C   0  0  0  0  0  0  0  0  0  0  0  0
   -0.3181   -2.9519    0.7312 O   0  0  0  0  0  0  0  0  0  0  0  0
   -1.0281   -0.9259    0.0662 N   0  0  0  0  0  0  0  0  0  0  0  0
   -1.8301   -0.3519   -0.1548 H   0  0  0  0  0  0  0  0  0  0  0  0
    0.2709   -0.2409    0.0912 C   0  0  1  0  0  0  0  0  0  0  0  0
    0.3932    0.2443    1.0598 H   0  0  0  0  0  0  0  0  0  0  0  0
    1.4034   -1.2627   -0.0734 C   0  0  0  0  0  0  0  0  0  0  0  0
    2.3624   -0.7568    0.0499 H   0  0  0  0  0  0  0  0  0  0  0  0
    1.3117   -2.0353    0.6921 H   0  0  0  0  0  0  0  0  0  0  0  0
    1.3643   -1.8574   -1.3571 O   0  0  0  0  0  0  0  0  0  0  0  0
    2.1800   -2.3539   -1.4843 H   0  0  0  0  0  0  0  0  0  0  0  0
    0.3302    0.8448   -0.9963 C   0  0  0  0  0  0  0  0  0  0  0  0
    1.2177    1.6982   -0.9675 O   0  0  0  0  0  0  0  0  0  0  0  0
   -0.5982    0.8112   -1.9583 N   0  0  0  0  0  0  0  0  0  0  0  0
   -1.3394    0.1320   -1.8475 H   0  0  0  0  0  0  0  0  0  0  0  0
   -0.6739    1.7517   -3.0746 C   0  0  0  0  0  0  0  0  0  0  0  0
    0.3192    1.8941   -3.5060 H   0  0  0  0  0  0  0  0  0  0  0  0
   -1.3477    1.3706   -3.8425 H   0  0  0  0  0  0  0  0  0  0  0  0
   -1.0410    2.7159   -2.7170 H   0  0  0  0  0  0  0  0  0  0  0  0
  5  6  2  0  0  0  0
  5  7  1  0  0  0  0
  2  3  1  0  0  0  0
  2  4  1  0  0  0  0
  2  5  1  0  0  0  0
  1  2  1  0  0  0  0
 16 17  2  0  0  0  0
 16 18  1  0  0  0  0
 14 15  1  0  0  0  0
 11 12  1  0  0  0  0
 11 13  1  0  0  0  0
 11 14  1  0  0  0  0
  9 10  1  0  0  0  0
  9 11  1  0  0  0  0
  9 16  1  0  0  0  0
  7  8  1  0  0  0  0
  7  9  1  0  0  0  0
 20 21  1  0  0  0  0
 20 22  1  0  0  0  0
 20 23  1  0  0  0  0
 18 19  1  0  0  0  0
 18 20  1  0  0  0  0
M  END
$$$$
default_name
  -OEChem-01062215323D

 23 22  0     1  0  0  0  0  0999 V2000
   -2.6721   -3.7279    0.7212 H   0  0  0  0  0  0  0  0  0  0  0  0
   -2.6561   -2.6819    0.4162 C   0  0  0  0  0  0  0  0  0  0  0  0
   -3.2401   -2.0889    1.1172 H   0  0  0  0  0  0  0  0  0  0  0  0
   -3.0671   -2.5859   -0.5858 H   0  0  0  0  0  0  0  0  0  0  0  0
   -1.2261   -2.1939    0.4202 C   0  0  0  0  0  0  0  0  0  0  0  0
   -0.3181   -2.9519    0.7312 O   0  0  0  0  0  0  0  0  0  0  0  0
   -1.0281   -0.9259    0.0662 N   0  0  0  0  0  0  0  0  0  0  0  0
   -1.8301   -0.3519   -0.1548 H   0  0  0  0  0  0  0  0  0  0  0  0
    0.2709   -0.2409    0.0912 C   0  0  1  0  0  0  0  0  0  0  0  0
    0.3932    0.2443    1.0598 H   0  0  0  0  0  0  0  0  0  0  0  0
    1.4034   -1.2627   -0.0734 C   0  0  0  0  0  0  0  0  0  0  0  0
    2.3624   -0.7568    0.0499 H   0  0  0  0  0  0  0  0  0  0  0  0
    1.3117   -2.0353    0.6921 H   0  0  0  0  0  0  0  0  0  0  0  0
    1.3643   -1.8574   -1.3571 O   0  0  0  0  0  0  0  0  0  0  0  0
    2.1800   -2.3539   -1.4843 H   0  0  0  0  0  0  0  0  0  0  0  0
    0.3302    0.8448   -0.9963 C   0  0  0  0  0  0  0  0  0  0  0  0
    1.3497    1.5212   -1.1370 O   0  0  0  0  0  0  0  0  0  0  0  0
   -0.7477    1.0068   -1.7712 N   0  0  0  0  0  0  0  0  0  0  0  0
   -1.5685    0.4712   -1.5214 H   0  0  0  0  0  0  0  0  0  0  0  0
   -0.8507    1.9751   -2.8611 C   0  0  0  0  0  0  0  0  0  0  0  0
    0.0563    1.9460   -3.4686 H   0  0  0  0  0  0  0  0  0  0  0  0
   -1.7113    1.7440   -3.4896 H   0  0  0  0  0  0  0  0  0  0  0  0
   -0.9629    2.9801   -2.4490 H   0  0  0  0  0  0  0  0  0  0  0  0
  5  6  2  0  0  0  0
  5  7  1  0  0  0  0
  2  3  1  0  0  0  0
  2  4  1  0  0  0  0
  2  5  1  0  0  0  0
  1  2  1  0  0  0  0
 16 17  2  0  0  0  0
 16 18  1  0  0  0  0
 14 15  1  0  0  0  0
 11 12  1  0  0  0  0
 11 13  1  0  0  0  0
 11 14  1  0  0  0  0
  9 10  1  0  0  0  0
  9 11  1  0  0  0  0
  9 16  1  0  0  0  0
  7  8  1  0  0  0  0
  7  9  1  0  0  0  0
 20 21  1  0  0  0  0
 20 22  1  0  0  0  0
 20 23  1  0  0  0  0
 18 19  1  0  0  0  0
 18 20  1  0  0  0  0
M  END
$$$$
default_name
  -OEChem-01062215323D

 23 22  0     1  0  0  0  0  0999 V2000
   -2.6721   -3.7279    0.7212 H   0  0  0  0  0  0  0  0  0  0  0  0
   -2.6561   -2.6819    0.4162 C   0  0  0  0  0  0  0  0  0  0  0  0
   -3.2401   -2.0889    1.1172 H   0  0  0  0  0  0  0  0  0  0  0  0
   -3.0671   -2.5859   -0.5858 H   0  0  0  0  0  0  0  0  0  0  0  0
   -1.2261   -2.1939    0.4202 C   0  0  0  0  0  0  0  0  0  0  0  0
   -0.3181   -2.9519    0.7312 O   0  0  0  0  0  0  0  0  0  0  0  0
   -1.0281   -0.9259    0.0662 N   0  0  0  0  0  0  0  0  0  0  0  0
   -1.8301   -0.3519   -0.1548 H   0  0  0  0  0  0  0  0  0  0  0  0
    0.2709   -0.2409    0.0912 C   0  0  1  0  0  0  0  0  0  0  0  0
    0.3932    0.2443    1.0598 H   0  0  0  0  0  0  0  0  0  0  0  0
    1.4034   -1.2627   -0.0734 C   0  0  0  0  0  0  0  0  0  0  0  0
    2.3624   -0.7568    0.0499 H   0  0  0  0  0  0  0  0  0  0  0  0
    1.3117   -2.0353    0.6921 H   0  0  0  0  0  0  0  0  0  0  0  0
    1.3643   -1.8574   -1.3571 O   0  0  0  0  0  0  0  0  0  0  0  0
    2.1800   -2.3539   -1.4843 H   0  0  0  0  0  0  0  0  0  0  0  0
    0.3302    0.8448   -0.9963 C   0  0  0  0  0  0  0  0  0  0  0  0
    1.4139    1.3278   -1.3266 O   0  0  0  0  0  0  0  0  0  0  0  0
   -0.8221    1.2212   -1.5611 N   0  0  0  0  0  0  0  0  0  0  0  0
   -1.6680    0.8375   -1.1611 H   0  0  0  0  0  0  0  0  0  0  0  0
   -0.9416    2.2212   -2.6204 C   0  0  0  0  0  0  0  0  0  0  0  0
   -0.1813    2.0438   -3.3839 H   0  0  0  0  0  0  0  0  0  0  0  0
   -1.9297    2.1677   -3.0785 H   0  0  0  0  0  0  0  0  0  0  0  0
   -0.7902    3.2183   -2.2017 H   0  0  0  0  0  0  0  0  0  0  0  0
  5  6  2  0  0  0  0
  5  7  1  0  0  0  0
  2  3  1  0  0  0  0
  2  4  1  0  0  0  0
  2  5  1  0  0  0  0
  1  2  1  0  0  0  0
 16 17  2  0  0  0  0
 16 18  1  0  0  0  0
 14 15  1  0  0  0  0
 11 12  1  0  0  0  0
 11 13  1  0  0  0  0
 11 14  1  0  0  0  0
  9 10  1  0  0  0  0
  9 11  1  0  0  0  0
  9 16  1  0  0  0  0
  7  8  1  0  0  0  0
  7  9  1  0  0  0  0
 20 21  1  0  0  0  0
 20 22  1  0  0  0  0
 20 23  1  0  0  0  0
 18 19  1  0  0  0  0
 18 20  1  0  0  0  0
M  END
$$$$
default_name
  -OEChem-01062215323D

 23 22  0     1  0  0  0  0  0999 V2000
   -2.6721   -3.7279    0.7212 H   0  0  0  0  0  0  0  0  0  0  0  0
   -2.6561   -2.6819    0.4162 C   0  0  0  0  0  0  0  0  0  0  0  0
   -3.2401   -2.0889    1.1172 H   0  0  0  0  0  0  0  0  0  0  0  0
   -3.0671   -2.5859   -0.5858 H   0  0  0  0  0  0  0  0  0  0  0  0
   -1.2261   -2.1939    0.4202 C   0  0  0  0  0  0  0  0  0  0  0  0
   -0.3181   -2.9519    0.7312 O   0  0  0  0  0  0  0  0  0  0  0  0
   -1.0281   -0.9259    0.0662 N   0  0  0  0  0  0  0  0  0  0  0  0
   -1.8301   -0.3519   -0.1548 H   0  0  0  0  0  0  0  0  0  0  0  0
    0.2709   -0.2409    0.0912 C   0  0  1  0  0  0  0  0  0  0  0  0
    0.3932    0.2443    1.0598 H   0  0  0  0  0  0  0  0  0  0  0  0
    1.4034   -1.2627   -0.0734 C   0  0  0  0  0  0  0  0  0  0  0  0
    2.3624   -0.7568    0.0499 H   0  0  0  0  0  0  0  0  0  0  0  0
    1.3117   -2.0353    0.6921 H   0  0  0  0  0  0  0  0  0  0  0  0
    1.3643   -1.8574   -1.3571 O   0  0  0  0  0  0  0  0  0  0  0  0
    2.1800   -2.3539   -1.4843 H   0  0  0  0  0  0  0  0  0  0  0  0
    0.3302    0.8448   -0.9963 C   0  0  0  0  0  0  0  0  0  0  0  0
    1.4058    1.1311   -1.5234 O   0  0  0  0  0  0  0  0  0  0  0  0
   -0.8163    1.4399   -1.3425 N   0  0  0  0  0  0  0  0  0  0  0  0
   -1.6314    1.2060   -0.7913 H   0  0  0  0  0  0  0  0  0  0  0  0
   -0.9404    2.4731   -2.3688 C   0  0  0  0  0  0  0  0  0  0  0  0
   -0.3774    2.1809   -3.2578 H   0  0  0  0  0  0  0  0  0  0  0  0
   -1.9880    2.6128   -2.6372 H   0  0  0  0  0  0  0  0  0  0  0  0
   -0.5347    3.4143   -1.9921 H   0  0  0  0  0  0  0  0  0  0  0  0
  5  6  2  0  0  0  0
  5  7  1  0  0  0  0
  2  3  1  0  0  0  0
  2  4  1  0  0  0  0
  2  5  1  0  0  0  0
  1  2  1  0  0  0  0
 16 17  2  0  0  0  0
 16 18  1  0  0  0  0
 14 15  1  0  0  0  0
 11 12  1  0  0  0  0
 11 13  1  0  0  0  0
 11 14  1  0  0  0  0
  9 10  1  0  0  0  0
  9 11  1  0  0  0  0
  9 16  1  0  0  0  0
  7  8  1  0  0  0  0
  7  9  1  0  0  0  0
 20 21  1  0  0  0  0
 20 22  1  0  0  0  0
 20 23  1  0  0  0  0
 18 19  1  0  0  0  0
 18 20  1  0  0  0  0
M  END
$$$$
default_name
  -OEChem-01062215323D

 23 22  0     1  0  0  0  0  0999 V2000
   -2.6721   -3.7279    0.7212 H   0  0  0  0  0  0  0  0  0  0  0  0
   -2.6561   -2.6819    0.4162 C   0  0  0  0  0  0  0  0  0  0  0  0
   -3.2401   -2.0889    1.1172 H   0  0  0  0  0  0  0  0  0  0  0  0
   -3.0671   -2.5859   -0.5858 H   0  0  0  0  0  0  0  0  0  0  0  0
   -1.2261   -2.1939    0.4202 C   0  0  0  0  0  0  0  0  0  0  0  0
   -0.3181   -2.9519    0.7312 O   0  0  0  0  0  0  0  0  0  0  0  0
   -1.0281   -0.9259    0.0662 N   0  0  0  0  0  0  0  0  0  0  0  0
   -1.8301   -0.3519   -0.1548 H   0  0  0  0  0  0  0  0  0  0  0  0
    0.2709   -0.2409    0.0912 C   0  0  1  0  0  0  0  0  0  0  0  0
    0.3932    0.2443    1.0598 H   0  0  0  0  0  0  0  0  0  0  0  0
    1.4034   -1.2627   -0.0734 C   0  0  0  0  0  0  0  0  0  0  0  0
    2.3624   -0.7568    0.0499 H   0  0  0  0  0  0  0  0  0  0  0  0
    1.3117   -2.0353    0.6921 H   0  0  0  0  0  0  0  0  0  0  0  0
    1.3643   -1.8574   -1.3571 O   0  0  0  0  0  0  0  0  0  0  0  0
    2.1800   -2.3539   -1.4843 H   0  0  0  0  0  0  0  0  0  0  0  0
    0.3302    0.8448   -0.9963 C   0  0  0  0  0  0  0  0  0  0  0  0
    1.3261    0.9446   -1.7139 O   0  0  0  0  0  0  0  0  0  0  0  0
   -0.7308    1.6479   -1.1302 N   0  0  0  0  0  0  0  0  0  0  0  0
   -1.4609    1.5515   -0.4370 H   0  0  0  0  0  0  0  0  0  0  0  0
   -0.8472    2.7137   -2.1235 C   0  0  0  0  0  0  0  0  0  0  0  0
   -0.5187    2.3479   -3.0987 H   0  0  0  0  0  0  0  0  0  0  0  0
   -1.8822    3.0490   -2.1960 H   0  0  0  0  0  0  0  0  0  0  0  0
   -0.2136    3.5548   -1.8343 H   0  0  0  0  0  0  0  0  0  0  0  0
  5  6  2  0  0  0  0
  5  7  1  0  0  0  0
  2  3  1  0  0  0  0
  2  4  1  0  0  0  0
  2  5  1  0  0  0  0
  1  2  1  0  0  0  0
 16 17  2  0  0  0  0
 16 18  1  0  0  0  0
 14 15  1  0  0  0  0
 11 12  1  0  0  0  0
 11 13  1  0  0  0  0
 11 14  1  0  0  0  0
  9 10  1  0  0  0  0
  9 11  1  0  0  0  0
  9 16  1  0  0  0  0
  7  8  1  0  0  0  0
  7  9  1  0  0  0  0
 20 21  1  0  0  0  0
 20 22  1  0  0  0  0
 20 23  1  0  0  0  0
 18 19  1  0  0  0  0
 18 20  1  0  0  0  0
M  END
$$$$
default_name
  -OEChem-01062215323D

 23 22  0     1  0  0  0  0  0999 V2000
   -2.6721   -3.7279    0.7212 H   0  0  0  0  0  0  0  0  0  0  0  0
   -2.6561   -2.6819    0.4162 C   0  0  0  0  0  0  0  0  0  0  0  0
   -3.2401   -2.0889    1.1172 H   0  0  0  0  0  0  0  0  0  0  0  0
   -3.0671   -2.5859   -0.5858 H   0  0  0  0  0  0  0  0  0  0  0  0
   -1.2261   -2.1939    0.4202 C   0  0  0  0  0  0  0  0  0  0  0  0
   -0.3181   -2.9519    0.7312 O   0  0  0  0  0  0  0  0  0  0  0  0
   -1.0281   -0.9259    0.0662 N   0  0  0  0  0  0  0  0  0  0  0  0
   -1.8301   -0.3519   -0.1548 H   0  0  0  0  0  0  0  0  0  0  0  0
    0.2709   -0.2409    0.0912 C   0  0  1  0  0  0  0  0  0  0  0  0
    0.3932    0.2443    1.0598 H   0  0  0  0  0  0  0  0  0  0  0  0
    1.4034   -1.2627   -0.0734 C   0  0  0  0  0  0  0  0  0  0  0  0
    2.3624   -0.7568    0.0499 H   0  0  0  0  0  0  0  0  0  0  0  0
    1.3117   -2.0353    0.6921 H   0  0  0  0  0  0  0  0  0  0  0  0
    1.3643   -1.8574   -1.3571 O   0  0  0  0  0  0  0  0  0  0  0  0
    2.1800   -2.3539   -1.4843 H   0  0  0  0  0  0  0  0  0  0  0  0
    0.3302    0.8448   -0.9963 C   0  0  0  0  0  0  0  0  0  0  0  0
    1.1801    0.7809   -1.8853 O   0  0  0  0  0  0  0  0  0  0  0  0
   -0.5713    1.8310   -0.9387 N   0  0  0  0  0  0  0  0  0  0  0  0
   -1.1683    1.8505   -0.1226 H   0  0  0  0  0  0  0  0  0  0  0  0
   -0.6683    2.9266   -1.9012 C   0  0  0  0  0  0  0  0  0  0  0  0
   -0.5955    2.5336   -2.9175 H   0  0  0  0  0  0  0  0  0  0  0  0
   -1.6195    3.4466   -1.7847 H   0  0  0  0  0  0  0  0  0  0  0  0
    0.1511    3.6301   -1.7392 H   0  0  0  0  0  0  0  0  0  0  0  0
  5  6  2  0  0  0  0
  5  7  1  0  0  0  0
  2  3  1  0  0  0  0
  2  4  1  0  0  0  0
  2  5  1  0  0  0  0
  1  2  1  0  0  0  0
 16 17  2  0  0  0  0
 16 18  1  0  0  0  0
 14 15  1  0  0  0  0
 11 12  1  0  0  0  0
 11 13  1  0  0  0  0
 11 14  1  0  0  0  0
  9 10  1  0  0  0  0
  9 11  1  0  0  0  0
  9 16  1  0  0  0  0
  7  8  1  0  0  0  0
  7  9  1  0  0  0  0
 20 21  1  0  0  0  0
 20 22  1  0  0  0  0
 20 23  1  0  0  0  0
 18 19  1  0  0  0  0
 18 20  1  0  0  0  0
M  END
$$$$
default_name
  -OEChem-01062215323D

 23 22  0     1  0  0  0  0  0999 V2000
   -2.6721   -3.7279    0.7212 H   0  0  0  0  0  0  0  0  0  0  0  0
   -2.6561   -2.6819    0.4162 C   0  0  0  0  0  0  0  0  0  0  0  0
   -3.2401   -2.0889    1.1172 H   0  0  0  0  0  0  0  0  0  0  0  0
   -3.0671   -2.5859   -0.5858 H   0  0  0  0  0  0  0  0  0  0  0  0
   -1.2261   -2.1939    0.4202 C   0  0  0  0  0  0  0  0  0  0  0  0
   -0.3181   -2.9519    0.7312 O   0  0  0  0  0  0  0  0  0  0  0  0
   -1.0281   -0.9259    0.0662 N   0  0  0  0  0  0  0  0  0  0  0  0
   -1.8301   -0.3519   -0.1548 H   0  0  0  0  0  0  0  0  0  0  0  0
    0.2709   -0.2409    0.0912 C   0  0  1  0  0  0  0  0  0  0  0  0
    0.3932    0.2443    1.0598 H   0  0  0  0  0  0  0  0  0  0  0  0
    1.4034   -1.2627   -0.0734 C   0  0  0  0  0  0  0  0  0  0  0  0
    2.3624   -0.7568    0.0499 H   0  0  0  0  0  0  0  0  0  0  0  0
    1.3117   -2.0353    0.6921 H   0  0  0  0  0  0  0  0  0  0  0  0
    1.3643   -1.8574   -1.3571 O   0  0  0  0  0  0  0  0  0  0  0  0
    2.1800   -2.3539   -1.4843 H   0  0  0  0  0  0  0  0  0  0  0  0
    0.3302    0.8448   -0.9963 C   0  0  0  0  0  0  0  0  0  0  0  0
    0.9778    0.6512   -2.0258 O   0  0  0  0  0  0  0  0  0  0  0  0
   -0.3488    1.9767   -0.7811 N   0  0  0  0  0  0  0  0  0  0  0  0
   -0.7735    2.0826    0.1307 H   0  0  0  0  0  0  0  0  0  0  0  0
   -0.4158    3.0973   -1.7170 C   0  0  0  0  0  0  0  0  0  0  0  0
   -0.6026    2.7252   -2.7266 H   0  0  0  0  0  0  0  0  0  0  0  0
   -1.2179    3.7785   -1.4314 H   0  0  0  0  0  0  0  0  0  0  0  0
    0.5345    3.6352   -1.7132 H   0  0  0  0  0  0  0  0  0  0  0  0
  5  6  2  0  0  0  0
  5  7  1  0  0  0  0
  2  3  1  0  0  0  0
  2  4  1  0  0  0  0
  2  5  1  0  0  0  0
  1  2  1  0  0  0  0
 16 17  2  0  0  0  0
 16 18  1  0  0  0  0
 14 15  1  0  0  0  0
 11 12  1  0  0  0  0
 11 13  1  0  0  0  0
 11 14  1  0  0  0  0
  9 10  1  0  0  0  0
  9 11  1  0  0  0  0
  9 16  1  0  0  0  0
  7  8  1  0  0  0  0
  7  9  1  0  0  0  0
 20 21  1  0  0  0  0
 20 22  1  0  0  0  0
 20 23  1  0  0  0  0
 18 19  1  0  0  0  0
 18 20  1  0  0  0  0
M  END
$$$$
default_name
  -OEChem-01062215323D

 23 22  0     1  0  0  0  0  0999 V2000
   -2.6721   -3.7279    0.7212 H   0  0  0  0  0  0  0  0  0  0  0  0
   -2.6561   -2.6819    0.4162 C   0  0  0  0  0  0  0  0  0  0  0  0
   -3.2401   -2.0889    1.1172 H   0  0  0  0  0  0  0  0  0  0  0  0
   -3.0671   -2.5859   -0.5858 H   0  0  0  0  0  0  0  0  0  0  0  0
   -1.2261   -2.1939    0.4202 C   0  0  0  0  0  0  0  0  0  0  0  0
   -0.3181   -2.9519    0.7312 O   0  0  0  0  0  0  0  0  0  0  0  0
   -1.0281   -0.9259    0.0662 N   0  0  0  0  0  0  0  0  0  0  0  0
   -1.8301   -0.3519   -0.1548 H   0  0  0  0  0  0  0  0  0  0  0  0
    0.2709   -0.2409    0.0912 C   0  0  1  0  0  0  0  0  0  0  0  0
    0.3932    0.2443    1.0598 H   0  0  0  0  0  0  0  0  0  0  0  0
    1.4034   -1.2627   -0.0734 C   0  0  0  0  0  0  0  0  0  0  0  0
    2.3624   -0.7568    0.0499 H   0  0  0  0  0  0  0  0  0  0  0  0
    1.3117   -2.0353    0.6921 H   0  0  0  0  0  0  0  0  0  0  0  0
    1.3643   -1.8574   -1.3571 O   0  0  0  0  0  0  0  0  0  0  0  0
    2.1800   -2.3539   -1.4843 H   0  0  0  0  0  0  0  0  0  0  0  0
    0.3302    0.8448   -0.9963 C   0  0  0  0  0  0  0  0  0  0  0  0
    0.7330    0.5644   -2.1258 O   0  0  0  0  0  0  0  0  0  0  0  0
   -0.0783    2.0752   -0.6680 N   0  0  0  0  0  0  0  0  0  0  0  0
   -0.3034    2.2320    0.3055 H   0  0  0  0  0  0  0  0  0  0  0  0
   -0.1071    3.2141   -1.5836 C   0  0  0  0  0  0  0  0  0  0  0  0
   -0.5395    2.9096   -2.5391 H   0  0  0  0  0  0  0  0  0  0  0  0
   -0.7047    4.0220   -1.1603 H   0  0  0  0  0  0  0  0  0  0  0  0
    0.9105    3.5696   -1.7581 H   0  0  0  0  0  0  0  0  0  0  0  0
  5  6  2  0  0  0  0
  5  7  1  0  0  0  0
  2  3  1  0  0  0  0
  2  4  1  0  0  0  0
  2  5  1  0  0  0  0
  1  2  1  0  0  0  0
 16 17  2  0  0  0  0
 16 18  1  0  0  0  0
 14 15  1  0  0  0  0
 11 12  1  0  0  0  0
 11 13  1  0  0  0  0
 11 14  1  0  0  0  0
  9 10  1  0  0  0  0
  9 11  1  0  0  0  0
  9 16  1  0  0  0  0
  7  8  1  0  0  0  0
  7  9  1  0  0  0  0
 20 21  1  0  0  0  0
 20 22  1  0  0  0  0
 20 23  1  0  0  0  0
 18 19  1  0  0  0  0
 18 20  1  0  0  0  0
M  END
$$$$
default_name
  -OEChem-01062215323D

 23 22  0     1  0  0  0  0  0999 V2000
   -2.6721   -3.7279    0.7212 H   0  0  0  0  0  0  0  0  0  0  0  0
   -2.6561   -2.6819    0.4162 C   0  0  0  0  0  0  0  0  0  0  0  0
   -3.2401   -2.0889    1.1172 H   0  0  0  0  0  0  0  0  0  0  0  0
   -3.0671   -2.5859   -0.5858 H   0  0  0  0  0  0  0  0  0  0  0  0
   -1.2261   -2.1939    0.4202 C   0  0  0  0  0  0  0  0  0  0  0  0
   -0.3181   -2.9519    0.7312 O   0  0  0  0  0  0  0  0  0  0  0  0
   -1.0281   -0.9259    0.0662 N   0  0  0  0  0  0  0  0  0  0  0  0
   -1.8301   -0.3519   -0.1548 H   0  0  0  0  0  0  0  0  0  0  0  0
    0.2709   -0.2409    0.0912 C   0  0  1  0  0  0  0  0  0  0  0  0
    0.3932    0.2443    1.0598 H   0  0  0  0  0  0  0  0  0  0  0  0
    1.4034   -1.2627   -0.0734 C   0  0  0  0  0  0  0  0  0  0  0  0
    2.3624   -0.7568    0.0499 H   0  0  0  0  0  0  0  0  0  0  0  0
    1.3117   -2.0353    0.6921 H   0  0  0  0  0  0  0  0  0  0  0  0
    1.3643   -1.8574   -1.3571 O   0  0  0  0  0  0  0  0  0  0  0  0
    2.1800   -2.3539   -1.4843 H   0  0  0  0  0  0  0  0  0  0  0  0
    0.3302    0.8448   -0.9963 C   0  0  0  0  0  0  0  0  0  0  0  0
    0.4624    0.5264   -2.1786 O   0  0  0  0  0  0  0  0  0  0  0  0
    0.2216    2.1197   -0.6072 N   0  0  0  0  0  0  0  0  0  0  0  0
    0.2100    2.2885    0.3899 H   0  0  0  0  0  0  0  0  0  0  0  0
    0.2368    3.2691   -1.5099 C   0  0  0  0  0  0  0  0  0  0  0  0
   -0.4106    3.0743   -2.3676 H   0  0  0  0  0  0  0  0  0  0  0  0
   -0.1148    4.1606   -0.9898 H   0  0  0  0  0  0  0  0  0  0  0  0
    1.2535    3.4380   -1.8709 H   0  0  0  0  0  0  0  0  0  0  0  0
  5  6  2  0  0  0  0
  5  7  1  0  0  0  0
  2  3  1  0  0  0  0
  2  4  1  0  0  0  0
  2  5  1  0  0  0  0
  1  2  1  0  0  0  0
 16 17  2  0  0  0  0
 16 18  1  0  0  0  0
 14 15  1  0  0  0  0
 11 12  1  0  0  0  0
 11 13  1  0  0  0  0
 11 14  1  0  0  0  0
  9 10  1  0  0  0  0
  9 11  1  0  0  0  0
  9 16  1  0  0  0  0
  7  8  1  0  0  0  0
  7  9  1  0  0  0  0
 20 21  1  0  0  0  0
 20 22  1  0  0  0  0
 20 23  1  0  0  0  0
 18 19  1  0  0  0  0
 18 20  1  0  0  0  0
M  END
$$$$
default_name
  -OEChem-01062215323D

 23 22  0     1  0  0  0  0  0999 V2000
   -2.6721   -3.7279    0.7212 H   0  0  0  0  0  0  0  0  0  0  0  0
   -2.6561   -2.6819    0.4162 C   0  0  0  0  0  0  0  0  0  0  0  0
   -3.2401   -2.0889    1.1172 H   0  0  0  0  0  0  0  0  0  0  0  0
   -3.0671   -2.5859   -0.5858 H   0  0  0  0  0  0  0  0  0  0  0  0
   -1.2261   -2.1939    0.4202 C   0  0  0  0  0  0  0  0  0  0  0  0
   -0.3181   -2.9519    0.7312 O   0  0  0  0  0  0  0  0  0  0  0  0
   -1.0281   -0.9259    0.0662 N   0  0  0  0  0  0  0  0  0  0  0  0
   -1.8301   -0.3519   -0.1548 H   0  0  0  0  0  0  0  0  0  0  0  0
    0.2709   -0.2409    0.0912 C   0  0  1  0  0  0  0  0  0  0  0  0
    0.3932    0.2443    1.0598 H   0  0  0  0  0  0  0  0  0  0  0  0
    1.4034   -1.2627   -0.0734 C   0  0  0  0  0  0  0  0  0  0  0  0
    2.3624   -0.7568    0.0499 H   0  0  0  0  0  0  0  0  0  0  0  0
    1.3117   -2.0353    0.6921 H   0  0  0  0  0  0  0  0  0  0  0  0
    1.3643   -1.8574   -1.3571 O   0  0  0  0  0  0  0  0  0  0  0  0
    2.1800   -2.3539   -1.4843 H   0  0  0  0  0  0  0  0  0  0  0  0
    0.3302    0.8448   -0.9963 C   0  0  0  0  0  0  0  0  0  0  0  0
    0.1843    0.5397   -2.1805 O   0  0  0  0  0  0  0  0  0  0  0  0
    0.5305    2.1072   -0.6028 N   0  0  0  0  0  0  0  0  0  0  0  0
    0.7317    2.2483    0.3782 H   0  0  0  0  0  0  0  0  0  0  0  0
    0.5926    3.2585   -1.5010 C   0  0  0  0  0  0  0  0  0  0  0  0
   -0.2245    3.2082   -2.2238 H   0  0  0  0  0  0  0  0  0  0  0  0
    0.5114    4.1848   -0.9314 H   0  0  0  0  0  0  0  0  0  0  0  0
    1.5401    3.2492   -2.0438 H   0  0  0  0  0  0  0  0  0  0  0  0
  5  6  2  0  0  0  0
  5  7  1  0  0  0  0
  2  3  1  0  0  0  0
  2  4  1  0  0  0  0
  2  5  1  0  0  0  0
  1  2  1  0  0  0  0
 16 17  2  0  0  0  0
 16 18  1  0  0  0  0
 14 15  1  0  0  0  0
 11 12  1  0  0  0  0
 11 13  1  0  0  0  0
 11 14  1  0  0  0  0
  9 10  1  0  0  0  0
  9 11  1  0  0  0  0
  9 16  1  0  0  0  0
  7  8  1  0  0  0  0
  7  9  1  0  0  0  0
 20 21  1  0  0  0  0
 20 22  1  0  0  0  0
 20 23  1  0  0  0  0
 18 19  1  0  0  0  0
 18 20  1  0  0  0  0
M  END
$$$$
default_name
  -OEChem-01062215323D

 23 22  0     1  0  0  0  0  0999 V2000
   -2.6721   -3.7279    0.7212 H   0  0  0  0  0  0  0  0  0  0  0  0
   -2.6561   -2.6819    0.4162 C   0  0  0  0  0  0  0  0  0  0  0  0
   -3.2401   -2.0889    1.1172 H   0  0  0  0  0  0  0  0  0  0  0  0
   -3.0671   -2.5859   -0.5858 H   0  0  0  0  0  0  0  0  0  0  0  0
   -1.2261   -2.1939    0.4202 C   0  0  0  0  0  0  0  0  0  0  0  0
   -0.3181   -2.9519    0.7312 O   0  0  0  0  0  0  0  0  0  0  0  0
   -1.0281   -0.9259    0.0662 N   0  0  0  0  0  0  0  0  0  0  0  0
   -1.8301   -0.3519   -0.1548 H   0  0  0  0  0  0  0  0  0  0  0  0
    0.2709   -0.2409    0.0912 C   0  0  1  0  0  0  0  0  0  0  0  0
    0.3932    0.2443    1.0598 H   0  0  0  0  0  0  0  0  0  0  0  0
    1.4034   -1.2627   -0.0734 C   0  0  0  0  0  0  0  0  0  0  0  0
    2.3624   -0.7568    0.0499 H   0  0  0  0  0  0  0  0  0  0  0  0
    1.3117   -2.0353    0.6921 H   0  0  0  0  0  0  0  0  0  0  0  0
    1.3643   -1.8574   -1.3571 O   0  0  0  0  0  0  0  0  0  0  0  0
    2.1800   -2.3539   -1.4843 H   0  0  0  0  0  0  0  0  0  0  0  0
    0.3302    0.8448   -0.9963 C   0  0  0  0  0  0  0  0  0  0  0  0
   -0.0821    0.6034   -2.1314 O   0  0  0  0  0  0  0  0  0  0  0  0
    0.8275    2.0385   -0.6552 N   0  0  0  0  0  0  0  0  0  0  0  0
    1.2261    2.1141    0.2712 H   0  0  0  0  0  0  0  0  0  0  0  0
    0.9359    3.1831   -1.5576 C   0  0  0  0  0  0  0  0  0  0  0  0
    0.0059    3.3019   -2.1176 H   0  0  0  0  0  0  0  0  0  0  0  0
    1.1315    4.0930   -0.9893 H   0  0  0  0  0  0  0  0  0  0  0  0
    1.7508    3.0160   -2.2650 H   0  0  0  0  0  0  0  0  0  0  0  0
  5  6  2  0  0  0  0
  5  7  1  0  0  0  0
  2  3  1  0  0  0  0
  2  4  1  0  0  0  0
  2  5  1  0  0  0  0
  1  2  1  0  0  0  0
 16 17  2  0  0  0  0
 16 18  1  0  0  0  0
 14 15  1  0  0  0  0
 11 12  1  0  0  0  0
 11 13  1  0  0  0  0
 11 14  1  0  0  0  0
  9 10  1  0  0  0  0
  9 11  1  0  0  0  0
  9 16  1  0  0  0  0
  7  8  1  0  0  0  0
  7  9  1  0  0  0  0
 20 21  1  0  0  0  0
 20 22  1  0  0  0  0
 20 23  1  0  0  0  0
 18 19  1  0  0  0  0
 18 20  1  0  0  0  0
M  END
$$$$
default_name
  -OEChem-01062215323D

 23 22  0     1  0  0  0  0  0999 V2000
   -2.6721   -3.7279    0.7212 H   0  0  0  0  0  0  0  0  0  0  0  0
   -2.6561   -2.6819    0.4162 C   0  0  0  0  0  0  0  0  0  0  0  0
   -3.2401   -2.0889    1.1172 H   0  0  0  0  0  0  0  0  0  0  0  0
   -3.0671   -2.5859   -0.5858 H   0  0  0  0  0  0  0  0  0  0  0  0
   -1.2261   -2.1939    0.4202 C   0  0  0  0  0  0  0  0  0  0  0  0
   -0.3181   -2.9519    0.7312 O   0  0  0  0  0  0  0  0  0  0  0  0
   -1.0281   -0.9259    0.0662 N   0  0  0  0  0  0  0  0  0  0  0  0
   -1.8301   -0.3519   -0.1548 H   0  0  0  0  0  0  0  0  0  0  0  0
    0.2709   -0.2409    0.0912 C   0  0  1  0  0  0  0  0  0  0  0  0
    0.3932    0.2443    1.0598 H   0  0  0  0  0  0  0  0  0  0  0  0
    1.4034   -1.2627   -0.0734 C   0  0  0  0  0  0  0  0  0  0  0  0
    2.3624   -0.7568    0.0499 H   0  0  0  0  0  0  0  0  0  0  0  0
    1.3117   -2.0353    0.6921 H   0  0  0  0  0  0  0  0  0  0  0  0
    1.3643   -1.8574   -1.3571 O   0  0  0  0  0  0  0  0  0  0  0  0
    2.1800   -2.3539   -1.4843 H   0  0  0  0  0  0  0  0  0  0  0  0
    0.3302    0.8448   -0.9963 C   0  0  0  0  0  0  0  0  0  0  0  0
   -0.3188    0.7133   -2.0346 O   0  0  0  0  0  0  0  0  0  0  0  0
    1.0922    1.9183   -0.7607 N   0  0  0  0  0  0  0  0  0  0  0  0
    1.6595    1.8950    0.0762 H   0  0  0  0  0  0  0  0  0  0  0  0
    1.2434    3.0480   -1.6757 C   0  0  0  0  0  0  0  0  0  0  0  0
    0.2651    3.3493   -2.0562 H   0  0  0  0  0  0  0  0  0  0  0  0
    1.7030    3.8913   -1.1594 H   0  0  0  0  0  0  0  0  0  0  0  0
    1.8712    2.7545   -2.5195 H   0  0  0  0  0  0  0  0  0  0  0  0
  5  6  2  0  0  0  0
  5  7  1  0  0  0  0
  2  3  1  0  0  0  0
  2  4  1  0  0  0  0
  2  5  1  0  0  0  0
  1  2  1  0  0  0  0
 16 17  2  0  0  0  0
 16 18  1  0  0  0  0
 14 15  1  0  0  0  0
 11 12  1  0  0  0  0
 11 13  1  0  0  0  0
 11 14  1  0  0  0  0
  9 10  1  0  0  0  0
  9 11  1  0  0  0  0
  9 16  1  0  0  0  0
  7  8  1  0  0  0  0
  7  9  1  0  0  0  0
 20 21  1  0  0  0  0
 20 22  1  0  0  0  0
 20 23  1  0  0  0  0
 18 19  1  0  0  0  0
 18 20  1  0  0  0  0
M  END
$$$$
default_name
  -OEChem-01062215323D

 23 22  0     1  0  0  0  0  0999 V2000
   -2.6721   -3.7279    0.7212 H   0  0  0  0  0  0  0  0  0  0  0  0
   -2.6561   -2.6819    0.4162 C   0  0  0  0  0  0  0  0  0  0  0  0
   -3.2401   -2.0889    1.1172 H   0  0  0  0  0  0  0  0  0  0  0  0
   -3.0671   -2.5859   -0.5858 H   0  0  0  0  0  0  0  0  0  0  0  0
   -1.2261   -2.1939    0.4202 C   0  0  0  0  0  0  0  0  0  0  0  0
   -0.3181   -2.9519    0.7312 O   0  0  0  0  0  0  0  0  0  0  0  0
   -1.0281   -0.9259    0.0662 N   0  0  0  0  0  0  0  0  0  0  0  0
   -1.8301   -0.3519   -0.1548 H   0  0  0  0  0  0  0  0  0  0  0  0
    0.2709   -0.2409    0.0912 C   0  0  1  0  0  0  0  0  0  0  0  0
    0.3932    0.2443    1.0598 H   0  0  0  0  0  0  0  0  0  0  0  0
    1.4034   -1.2627   -0.0734 C   0  0  0  0  0  0  0  0  0  0  0  0
    2.3624   -0.7568    0.0499 H   0  0  0  0  0  0  0  0  0  0  0  0
    1.3117   -2.0353    0.6921 H   0  0  0  0  0  0  0  0  0  0  0  0
    1.3643   -1.8574   -1.3571 O   0  0  0  0  0  0  0  0  0  0  0  0
    2.1800   -2.3539   -1.4843 H   0  0  0  0  0  0  0  0  0  0  0  0
    0.3302    0.8448   -0.9963 C   0  0  0  0  0  0  0  0  0  0  0  0
   -0.5097    0.8617   -1.8968 O   0  0  0  0  0  0  0  0  0  0  0  0
    1.3065    1.7549   -0.9122 N   0  0  0  0  0  0  0  0  0  0  0  0
    2.0025    1.6060   -0.1936 H   0  0  0  0  0  0  0  0  0  0  0  0
    1.4941    2.8624   -1.8473 C   0  0  0  0  0  0  0  0  0  0  0  0
    0.5353    3.3469   -2.0438 H   0  0  0  0  0  0  0  0  0  0  0  0
    2.1871    3.5937   -1.4301 H   0  0  0  0  0  0  0  0  0  0  0  0
    1.8932    2.4824   -2.7900 H   0  0  0  0  0  0  0  0  0  0  0  0
  5  6  2  0  0  0  0
  5  7  1  0  0  0  0
  2  3  1  0  0  0  0
  2  4  1  0  0  0  0
  2  5  1  0  0  0  0
  1  2  1  0  0  0  0
 16 17  2  0  0  0  0
 16 18  1  0  0  0  0
 14 15  1  0  0  0  0
 11 12  1  0  0  0  0
 11 13  1  0  0  0  0
 11 14  1  0  0  0  0
  9 10  1  0  0  0  0
  9 11  1  0  0  0  0
  9 16  1  0  0  0  0
  7  8  1  0  0  0  0
  7  9  1  0  0  0  0
 20 21  1  0  0  0  0
 20 22  1  0  0  0  0
 20 23  1  0  0  0  0
 18 19  1  0  0  0  0
 18 20  1  0  0  0  0
M  END
$$$$
default_name
  -OEChem-01062215323D

 23 22  0     1  0  0  0  0  0999 V2000
   -2.6721   -3.7279    0.7212 H   0  0  0  0  0  0  0  0  0  0  0  0
   -2.6561   -2.6819    0.4162 C   0  0  0  0  0  0  0  0  0  0  0  0
   -3.2401   -2.0889    1.1172 H   0  0  0  0  0  0  0  0  0  0  0  0
   -3.0671   -2.5859   -0.5858 H   0  0  0  0  0  0  0  0  0  0  0  0
   -1.2261   -2.1939    0.4202 C   0  0  0  0  0  0  0  0  0  0  0  0
   -0.3181   -2.9519    0.7312 O   0  0  0  0  0  0  0  0  0  0  0  0
   -1.0281   -0.9259    0.0662 N   0  0  0  0  0  0  0  0  0  0  0  0
   -1.8301   -0.3519   -0.1548 H   0  0  0  0  0  0  0  0  0  0  0  0
    0.2709   -0.2409    0.0912 C   0  0  1  0  0  0  0  0  0  0  0  0
    0.5144    0.0122    1.1233 H   0  0  0  0  0  0  0  0  0  0  0  0
    1.3651   -1.1769   -0.4381 C   0  0  0  0  0  0  0  0  0  0  0  0
    2.3369   -0.6950   -0.3183 H   0  0  0  0  0  0  0  0  0  0  0  0
    1.3595   -2.1056    0.1353 H   0  0  0  0  0  0  0  0  0  0  0  0
    1.1651   -1.4630   -1.8097 O   0  0  0  0  0  0  0  0  0  0  0  0
    1.9545   -1.9021   -2.1443 H   0  0  0  0  0  0  0  0  0  0  0  0
    0.2084    1.0656   -0.7176 C   0  0  0  0  0  0  0  0  0  0  0  0
   -0.8431    1.4035   -1.2624 O   0  0  0  0  0  0  0  0  0  0  0  0
    1.3203    1.8054   -0.7887 N   0  0  0  0  0  0  0  0  0  0  0  0
    2.1575    1.4025   -0.3891 H   0  0  0  0  0  0  0  0  0  0  0  0
    1.4275    3.0800   -1.4957 C   0  0  0  0  0  0  0  0  0  0  0  0
    0.5651    3.7072   -1.2603 H   0  0  0  0  0  0  0  0  0  0  0  0
    2.3400    3.5986   -1.2000 H   0  0  0  0  0  0  0  0  0  0  0  0
    1.4457    2.9011   -2.5728 H   0  0  0  0  0  0  0  0  0  0  0  0
  5  6  2  0  0  0  0
  5  7  1  0  0  0  0
  2  3  1  0  0  0  0
  2  4  1  0  0  0  0
  2  5  1  0  0  0  0
  1  2  1  0  0  0  0
 16 17  2  0  0  0  0
 16 18  1  0  0  0  0
 14 15  1  0  0  0  0
 11 12  1  0  0  0  0
 11 13  1  0  0  0  0
 11 14  1  0  0  0  0
  9 10  1  0  0  0  0
  9 11  1  0  0  0  0
  9 16  1  0  0  0  0
  7  8  1  0  0  0  0
  7  9  1  0  0  0  0
 20 21  1  0  0  0  0
 20 22  1  0  0  0  0
 20 23  1  0  0  0  0
 18 19  1  0  0  0  0
 18 20  1  0  0  0  0
M  END
$$$$
default_name
  -OEChem-01062215323D

 23 22  0     1  0  0  0  0  0999 V2000
   -2.6721   -3.7279    0.7212 H   0  0  0  0  0  0  0  0  0  0  0  0
   -2.6561   -2.6819    0.4162 C   0  0  0  0  0  0  0  0  0  0  0  0
   -3.2401   -2.0889    1.1172 H   0  0  0  0  0  0  0  0  0  0  0  0
   -3.0671   -2.5859   -0.5858 H   0  0  0  0  0  0  0  0  0  0  0  0
   -1.2261   -2.1939    0.4202 C   0  0  0  0  0  0  0  0  0  0  0  0
   -0.3181   -2.9519    0.7312 O   0  0  0  0  0  0  0  0  0  0  0  0
   -1.0281   -0.9259    0.0662 N   0  0  0  0  0  0  0  0  0  0  0  0
   -1.8301   -0.3519   -0.1548 H   0  0  0  0  0  0  0  0  0  0  0  0
    0.2709   -0.2409    0.0912 C   0  0  1  0  0  0  0  0  0  0  0  0
    0.5144    0.0122    1.1233 H   0  0  0  0  0  0  0  0  0  0  0  0
    1.3651   -1.1769   -0.4381 C   0  0  0  0  0  0  0  0  0  0  0  0
    2.3369   -0.6950   -0.3183 H   0  0  0  0  0  0  0  0  0  0  0  0
    1.3595   -2.1056    0.1353 H   0  0  0  0  0  0  0  0  0  0  0  0
    1.1651   -1.4630   -1.8097 O   0  0  0  0  0  0  0  0  0  0  0  0
    1.9545   -1.9021   -2.1443 H   0  0  0  0  0  0  0  0  0  0  0  0
    0.2084    1.0656   -0.7176 C   0  0  0  0  0  0  0  0  0  0  0  0
   -0.8819    1.5472   -1.0273 O   0  0  0  0  0  0  0  0  0  0  0  0
    1.3666    1.6460   -1.0496 N   0  0  0  0  0  0  0  0  0  0  0  0
    2.2091    1.1302   -0.8330 H   0  0  0  0  0  0  0  0  0  0  0  0
    1.4862    2.8972   -1.7956 C   0  0  0  0  0  0  0  0  0  0  0  0
    0.7897    3.6358   -1.3930 H   0  0  0  0  0  0  0  0  0  0  0  0
    2.5028    3.2842   -1.7205 H   0  0  0  0  0  0  0  0  0  0  0  0
    1.2420    2.7226   -2.8455 H   0  0  0  0  0  0  0  0  0  0  0  0
  5  6  2  0  0  0  0
  5  7  1  0  0  0  0
  2  3  1  0  0  0  0
  2  4  1  0  0  0  0
  2  5  1  0  0  0  0
  1  2  1  0  0  0  0
 16 17  2  0  0  0  0
 16 18  1  0  0  0  0
 14 15  1  0  0  0  0
 11 12  1  0  0  0  0
 11 13  1  0  0  0  0
 11 14  1  0  0  0  0
  9 10  1  0  0  0  0
  9 11  1  0  0  0  0
  9 16  1  0  0  0  0
  7  8  1  0  0  0  0
  7  9  1  0  0  0  0
 20 21  1  0  0  0  0
 20 22  1  0  0  0  0
 20 23  1  0  0  0  0
 18 19  1  0  0  0  0
 18 20  1  0  0  0  0
M  END
$$$$
default_name
  -OEChem-01062215323D

 23 22  0     1  0  0  0  0  0999 V2000
   -2.6721   -3.7279    0.7212 H   0  0  0  0  0  0  0  0  0  0  0  0
   -2.6561   -2.6819    0.4162 C   0  0  0  0  0  0  0  0  0  0  0  0
   -3.2401   -2.0889    1.1172 H   0  0  0  0  0  0  0  0  0  0  0  0
   -3.0671   -2.5859   -0.5858 H   0  0  0  0  0  0  0  0  0  0  0  0
   -1.2261   -2.1939    0.4202 C   0  0  0  0  0  0  0  0  0  0  0  0
   -0.3181   -2.9519    0.7312 O   0  0  0  0  0  0  0  0  0  0  0  0
   -1.0281   -0.9259    0.0662 N   0  0  0  0  0  0  0  0  0  0  0  0
   -1.8301   -0.3519   -0.1548 H   0  0  0  0  0  0  0  0  0  0  0  0
    0.2709   -0.2409    0.0912 C   0  0  1  0  0  0  0  0  0  0  0  0
    0.5144    0.0122    1.1233 H   0  0  0  0  0  0  0  0  0  0  0  0
    1.3651   -1.1769   -0.4381 C   0  0  0  0  0  0  0  0  0  0  0  0
    2.3369   -0.6950   -0.3183 H   0  0  0  0  0  0  0  0  0  0  0  0
    1.3595   -2.1056    0.1353 H   0  0  0  0  0  0  0  0  0  0  0  0
    1.1651   -1.4630   -1.8097 O   0  0  0  0  0  0  0  0  0  0  0  0
    1.9545   -1.9021   -2.1443 H   0  0  0  0  0  0  0  0  0  0  0  0
    0.2084    1.0656   -0.7176 C   0  0  0  0  0  0  0  0  0  0  0  0
   -0.8481    1.6938   -0.7931 O   0  0  0  0  0  0  0  0  0  0  0  0
    1.3323    1.4831   -1.3102 N   0  0  0  0  0  0  0  0  0  0  0  0
    2.1243    0.8554   -1.2702 H   0  0  0  0  0  0  0  0  0  0  0  0
    1.4521    2.7095   -2.0962 C   0  0  0  0  0  0  0  0  0  0  0  0
    0.9677    3.5348   -1.5699 H   0  0  0  0  0  0  0  0  0  0  0  0
    2.5029    2.9529   -2.2557 H   0  0  0  0  0  0  0  0  0  0  0  0
    0.9610    2.5750   -3.0622 H   0  0  0  0  0  0  0  0  0  0  0  0
  5  6  2  0  0  0  0
  5  7  1  0  0  0  0
  2  3  1  0  0  0  0
  2  4  1  0  0  0  0
  2  5  1  0  0  0  0
  1  2  1  0  0  0  0
 16 17  2  0  0  0  0
 16 18  1  0  0  0  0
 14 15  1  0  0  0  0
 11 12  1  0  0  0  0
 11 13  1  0  0  0  0
 11 14  1  0  0  0  0
  9 10  1  0  0  0  0
  9 11  1  0  0  0  0
  9 16  1  0  0  0  0
  7  8  1  0  0  0  0
  7  9  1  0  0  0  0
 20 21  1  0  0  0  0
 20 22  1  0  0  0  0
 20 23  1  0  0  0  0
 18 19  1  0  0  0  0
 18 20  1  0  0  0  0
M  END
$$$$
default_name
  -OEChem-01062215323D

 23 22  0     1  0  0  0  0  0999 V2000
   -2.6721   -3.7279    0.7212 H   0  0  0  0  0  0  0  0  0  0  0  0
   -2.6561   -2.6819    0.4162 C   0  0  0  0  0  0  0  0  0  0  0  0
   -3.2401   -2.0889    1.1172 H   0  0  0  0  0  0  0  0  0  0  0  0
   -3.0671   -2.5859   -0.5858 H   0  0  0  0  0  0  0  0  0  0  0  0
   -1.2261   -2.1939    0.4202 C   0  0  0  0  0  0  0  0  0  0  0  0
   -0.3181   -2.9519    0.7312 O   0  0  0  0  0  0  0  0  0  0  0  0
   -1.0281   -0.9259    0.0662 N   0  0  0  0  0  0  0  0  0  0  0  0
   -1.8301   -0.3519   -0.1548 H   0  0  0  0  0  0  0  0  0  0  0  0
    0.2709   -0.2409    0.0912 C   0  0  1  0  0  0  0  0  0  0  0  0
    0.5144    0.0122    1.1233 H   0  0  0  0  0  0  0  0  0  0  0  0
    1.3651   -1.1769   -0.4381 C   0  0  0  0  0  0  0  0  0  0  0  0
    2.3369   -0.6950   -0.3183 H   0  0  0  0  0  0  0  0  0  0  0  0
    1.3595   -2.1056    0.1353 H   0  0  0  0  0  0  0  0  0  0  0  0
    1.1651   -1.4630   -1.8097 O   0  0  0  0  0  0  0  0  0  0  0  0
    1.9545   -1.9021   -2.1443 H   0  0  0  0  0  0  0  0  0  0  0  0
    0.2084    1.0656   -0.7176 C   0  0  0  0  0  0  0  0  0  0  0  0
   -0.7441    1.8333   -0.5758 O   0  0  0  0  0  0  0  0  0  0  0  0
    1.2196    1.3276   -1.5526 N   0  0  0  0  0  0  0  0  0  0  0  0
    1.9088    0.5970   -1.6711 H   0  0  0  0  0  0  0  0  0  0  0  0
    1.3275    2.5297   -2.3771 C   0  0  0  0  0  0  0  0  0  0  0  0
    1.0870    3.4112   -1.7788 H   0  0  0  0  0  0  0  0  0  0  0  0
    2.3402    2.6273   -2.7692 H   0  0  0  0  0  0  0  0  0  0  0  0
    0.6218    2.4685   -3.2081 H   0  0  0  0  0  0  0  0  0  0  0  0
  5  6  2  0  0  0  0
  5  7  1  0  0  0  0
  2  3  1  0  0  0  0
  2  4  1  0  0  0  0
  2  5  1  0  0  0  0
  1  2  1  0  0  0  0
 16 17  2  0  0  0  0
 16 18  1  0  0  0  0
 14 15  1  0  0  0  0
 11 12  1  0  0  0  0
 11 13  1  0  0  0  0
 11 14  1  0  0  0  0
  9 10  1  0  0  0  0
  9 11  1  0  0  0  0
  9 16  1  0  0  0  0
  7  8  1  0  0  0  0
  7  9  1  0  0  0  0
 20 21  1  0  0  0  0
 20 22  1  0  0  0  0
 20 23  1  0  0  0  0
 18 19  1  0  0  0  0
 18 20  1  0  0  0  0
M  END
$$$$
default_name
  -OEChem-01062215323D

 23 22  0     1  0  0  0  0  0999 V2000
   -2.6721   -3.7279    0.7212 H   0  0  0  0  0  0  0  0  0  0  0  0
   -2.6561   -2.6819    0.4162 C   0  0  0  0  0  0  0  0  0  0  0  0
   -3.2401   -2.0889    1.1172 H   0  0  0  0  0  0  0  0  0  0  0  0
   -3.0671   -2.5859   -0.5858 H   0  0  0  0  0  0  0  0  0  0  0  0
   -1.2261   -2.1939    0.4202 C   0  0  0  0  0  0  0  0  0  0  0  0
   -0.3181   -2.9519    0.7312 O   0  0  0  0  0  0  0  0  0  0  0  0
   -1.0281   -0.9259    0.0662 N   0  0  0  0  0  0  0  0  0  0  0  0
   -1.8301   -0.3519   -0.1548 H   0  0  0  0  0  0  0  0  0  0  0  0
    0.2709   -0.2409    0.0912 C   0  0  1  0  0  0  0  0  0  0  0  0
    0.5144    0.0122    1.1233 H   0  0  0  0  0  0  0  0  0  0  0  0
    1.3651   -1.1769   -0.4381 C   0  0  0  0  0  0  0  0  0  0  0  0
    2.3369   -0.6950   -0.3183 H   0  0  0  0  0  0  0  0  0  0  0  0
    1.3595   -2.1056    0.1353 H   0  0  0  0  0  0  0  0  0  0  0  0
    1.1651   -1.4630   -1.8097 O   0  0  0  0  0  0  0  0  0  0  0  0
    1.9545   -1.9021   -2.1443 H   0  0  0  0  0  0  0  0  0  0  0  0
    0.2084    1.0656   -0.7176 C   0  0  0  0  0  0  0  0  0  0  0  0
   -0.5768    1.9561   -0.3903 O   0  0  0  0  0  0  0  0  0  0  0  0
    1.0364    1.1902   -1.7604 N   0  0  0  0  0  0  0  0  0  0  0  0
    1.5774    0.3725   -2.0082 H   0  0  0  0  0  0  0  0  0  0  0  0
    1.1209    2.3700   -2.6191 C   0  0  0  0  0  0  0  0  0  0  0  0
    1.1395    3.2733   -2.0056 H   0  0  0  0  0  0  0  0  0  0  0  0
    2.0258    2.3295   -3.2260 H   0  0  0  0  0  0  0  0  0  0  0  0
    0.2476    2.4102   -3.2734 H   0  0  0  0  0  0  0  0  0  0  0  0
  5  6  2  0  0  0  0
  5  7  1  0  0  0  0
  2  3  1  0  0  0  0
  2  4  1  0  0  0  0
  2  5  1  0  0  0  0
  1  2  1  0  0  0  0
 16 17  2  0  0  0  0
 16 18  1  0  0  0  0
 14 15  1  0  0  0  0
 11 12  1  0  0  0  0
 11 13  1  0  0  0  0
 11 14  1  0  0  0  0
  9 10  1  0  0  0  0
  9 11  1  0  0  0  0
  9 16  1  0  0  0  0
  7  8  1  0  0  0  0
  7  9  1  0  0  0  0
 20 21  1  0  0  0  0
 20 22  1  0  0  0  0
 20 23  1  0  0  0  0
 18 19  1  0  0  0  0
 18 20  1  0  0  0  0
M  END
$$$$
default_name
  -OEChem-01062215323D

 23 22  0     1  0  0  0  0  0999 V2000
   -2.6721   -3.7279    0.7212 H   0  0  0  0  0  0  0  0  0  0  0  0
   -2.6561   -2.6819    0.4162 C   0  0  0  0  0  0  0  0  0  0  0  0
   -3.2401   -2.0889    1.1172 H   0  0  0  0  0  0  0  0  0  0  0  0
   -3.0671   -2.5859   -0.5858 H   0  0  0  0  0  0  0  0  0  0  0  0
   -1.2261   -2.1939    0.4202 C   0  0  0  0  0  0  0  0  0  0  0  0
   -0.3181   -2.9519    0.7312 O   0  0  0  0  0  0  0  0  0  0  0  0
   -1.0281   -0.9259    0.0662 N   0  0  0  0  0  0  0  0  0  0  0  0
   -1.8301   -0.3519   -0.1548 H   0  0  0  0  0  0  0  0  0  0  0  0
    0.2709   -0.2409    0.0912 C   0  0  1  0  0  0  0  0  0  0  0  0
    0.5144    0.0122    1.1233 H   0  0  0  0  0  0  0  0  0  0  0  0
    1.3651   -1.1769   -0.4381 C   0  0  0  0  0  0  0  0  0  0  0  0
    2.3369   -0.6950   -0.3183 H   0  0  0  0  0  0  0  0  0  0  0  0
    1.3595   -2.1056    0.1353 H   0  0  0  0  0  0  0  0  0  0  0  0
    1.1651   -1.4630   -1.8097 O   0  0  0  0  0  0  0  0  0  0  0  0
    1.9545   -1.9021   -2.1443 H   0  0  0  0  0  0  0  0  0  0  0  0
    0.2084    1.0656   -0.7176 C   0  0  0  0  0  0  0  0  0  0  0  0
   -0.3578    2.0539   -0.2492 O   0  0  0  0  0  0  0  0  0  0  0  0
    0.7949    1.0803   -1.9194 N   0  0  0  0  0  0  0  0  0  0  0  0
    1.1526    0.1972   -2.2586 H   0  0  0  0  0  0  0  0  0  0  0  0
    0.8463    2.2413   -2.8057 C   0  0  0  0  0  0  0  0  0  0  0  0
    1.1216    3.1306   -2.2347 H   0  0  0  0  0  0  0  0  0  0  0  0
    1.5811    2.0798   -3.5950 H   0  0  0  0  0  0  0  0  0  0  0  0
   -0.1361    2.4041   -3.2536 H   0  0  0  0  0  0  0  0  0  0  0  0
  5  6  2  0  0  0  0
  5  7  1  0  0  0  0
  2  3  1  0  0  0  0
  2  4  1  0  0  0  0
  2  5  1  0  0  0  0
  1  2  1  0  0  0  0
 16 17  2  0  0  0  0
 16 18  1  0  0  0  0
 14 15  1  0  0  0  0
 11 12  1  0  0  0  0
 11 13  1  0  0  0  0
 11 14  1  0  0  0  0
  9 10  1  0  0  0  0
  9 11  1  0  0  0  0
  9 16  1  0  0  0  0
  7  8  1  0  0  0  0
  7  9  1  0  0  0  0
 20 21  1  0  0  0  0
 20 22  1  0  0  0  0
 20 23  1  0  0  0  0
 18 19  1  0  0  0  0
 18 20  1  0  0  0  0
M  END
$$$$
default_name
  -OEChem-01062215323D

 23 22  0     1  0  0  0  0  0999 V2000
   -2.6721   -3.7279    0.7212 H   0  0  0  0  0  0  0  0  0  0  0  0
   -2.6561   -2.6819    0.4162 C   0  0  0  0  0  0  0  0  0  0  0  0
   -3.2401   -2.0889    1.1172 H   0  0  0  0  0  0  0  0  0  0  0  0
   -3.0671   -2.5859   -0.5858 H   0  0  0  0  0  0  0  0  0  0  0  0
   -1.2261   -2.1939    0.4202 C   0  0  0  0  0  0  0  0  0  0  0  0
   -0.3181   -2.9519    0.7312 O   0  0  0  0  0  0  0  0  0  0  0  0
   -1.0281   -0.9259    0.0662 N   0  0  0  0  0  0  0  0  0  0  0  0
   -1.8301   -0.3519   -0.1548 H   0  0  0  0  0  0  0  0  0  0  0  0
    0.2709   -0.2409    0.0912 C   0  0  1  0  0  0  0  0  0  0  0  0
    0.5144    0.0122    1.1233 H   0  0  0  0  0  0  0  0  0  0  0  0
    1.3651   -1.1769   -0.4381 C   0  0  0  0  0  0  0  0  0  0  0  0
    2.3369   -0.6950   -0.3183 H   0  0  0  0  0  0  0  0  0  0  0  0
    1.3595   -2.1056    0.1353 H   0  0  0  0  0  0  0  0  0  0  0  0
    1.1651   -1.4630   -1.8097 O   0  0  0  0  0  0  0  0  0  0  0  0
    1.9545   -1.9021   -2.1443 H   0  0  0  0  0  0  0  0  0  0  0  0
    0.2084    1.0656   -0.7176 C   0  0  0  0  0  0  0  0  0  0  0  0
   -0.1018    2.1201   -0.1621 O   0  0  0  0  0  0  0  0  0  0  0  0
    0.5118    1.0053   -2.0187 N   0  0  0  0  0  0  0  0  0  0  0  0
    0.6633    0.0831   -2.4051 H   0  0  0  0  0  0  0  0  0  0  0  0
    0.5226    2.1524   -2.9243 C   0  0  0  0  0  0  0  0  0  0  0  0
    1.0345    2.9928   -2.4506 H   0  0  0  0  0  0  0  0  0  0  0  0
    1.0365    1.8953   -3.8510 H   0  0  0  0  0  0  0  0  0  0  0  0
   -0.5033    2.4506   -3.1500 H   0  0  0  0  0  0  0  0  0  0  0  0
  5  6  2  0  0  0  0
  5  7  1  0  0  0  0
  2  3  1  0  0  0  0
  2  4  1  0  0  0  0
  2  5  1  0  0  0  0
  1  2  1  0  0  0  0
 16 17  2  0  0  0  0
 16 18  1  0  0  0  0
 14 15  1  0  0  0  0
 11 12  1  0  0  0  0
 11 13  1  0  0  0  0
 11 14  1  0  0  0  0
  9 10  1  0  0  0  0
  9 11  1  0  0  0  0
  9 16  1  0  0  0  0
  7  8  1  0  0  0  0
  7  9  1  0  0  0  0
 20 21  1  0  0  0  0
 20 22  1  0  0  0  0
 20 23  1  0  0  0  0
 18 19  1  0  0  0  0
 18 20  1  0  0  0  0
M  END
$$$$
default_name
  -OEChem-01062215323D

 23 22  0     1  0  0  0  0  0999 V2000
   -2.6721   -3.7279    0.7212 H   0  0  0  0  0  0  0  0  0  0  0  0
   -2.6561   -2.6819    0.4162 C   0  0  0  0  0  0  0  0  0  0  0  0
   -3.2401   -2.0889    1.1172 H   0  0  0  0  0  0  0  0  0  0  0  0
   -3.0671   -2.5859   -0.5858 H   0  0  0  0  0  0  0  0  0  0  0  0
   -1.2261   -2.1939    0.4202 C   0  0  0  0  0  0  0  0  0  0  0  0
   -0.3181   -2.9519    0.7312 O   0  0  0  0  0  0  0  0  0  0  0  0
   -1.0281   -0.9259    0.0662 N   0  0  0  0  0  0  0  0  0  0  0  0
   -1.8301   -0.3519   -0.1548 H   0  0  0  0  0  0  0  0  0  0  0  0
    0.2709   -0.2409    0.0912 C   0  0  1  0  0  0  0  0  0  0  0  0
    0.5144    0.0122    1.1233 H   0  0  0  0  0  0  0  0  0  0  0  0
    1.3651   -1.1769   -0.4381 C   0  0  0  0  0  0  0  0  0  0  0  0
    2.3369   -0.6950   -0.3183 H   0  0  0  0  0  0  0  0  0  0  0  0
    1.3595   -2.1056    0.1353 H   0  0  0  0  0  0  0  0  0  0  0  0
    1.1651   -1.4630   -1.8097 O   0  0  0  0  0  0  0  0  0  0  0  0
    1.9545   -1.9021   -2.1443 H   0  0  0  0  0  0  0  0  0  0  0  0
    0.2084    1.0656   -0.7176 C   0  0  0  0  0  0  0  0  0  0  0  0
    0.1736    2.1501   -0.1350 O   0  0  0  0  0  0  0  0  0  0  0  0
    0.2064    0.9704   -2.0515 N   0  0  0  0  0  0  0  0  0  0  0  0
    0.1430    0.0379   -2.4380 H   0  0  0  0  0  0  0  0  0  0  0  0
    0.1718    2.1094   -2.9668 C   0  0  0  0  0  0  0  0  0  0  0  0
    0.8841    2.8693   -2.6385 H   0  0  0  0  0  0  0  0  0  0  0  0
    0.4290    1.7885   -3.9766 H   0  0  0  0  0  0  0  0  0  0  0  0
   -0.8288    2.5467   -2.9698 H   0  0  0  0  0  0  0  0  0  0  0  0
  5  6  2  0  0  0  0
  5  7  1  0  0  0  0
  2  3  1  0  0  0  0
  2  4  1  0  0  0  0
  2  5  1  0  0  0  0
  1  2  1  0  0  0  0
 16 17  2  0  0  0  0
 16 18  1  0  0  0  0
 14 15  1  0  0  0  0
 11 12  1  0  0  0  0
 11 13  1  0  0  0  0
 11 14  1  0  0  0  0
  9 10  1  0  0  0  0
  9 11  1  0  0  0  0
  9 16  1  0  0  0  0
  7  8  1  0  0  0  0
  7  9  1  0  0  0  0
 20 21  1  0  0  0  0
 20 22  1  0  0  0  0
 20 23  1  0  0  0  0
 18 19  1  0  0  0  0
 18 20  1  0  0  0  0
M  END
$$$$
default_name
  -OEChem-01062215323D

 23 22  0     1  0  0  0  0  0999 V2000
   -2.6721   -3.7279    0.7212 H   0  0  0  0  0  0  0  0  0  0  0  0
   -2.6561   -2.6819    0.4162 C   0  0  0  0  0  0  0  0  0  0  0  0
   -3.2401   -2.0889    1.1172 H   0  0  0  0  0  0  0  0  0  0  0  0
   -3.0671   -2.5859   -0.5858 H   0  0  0  0  0  0  0  0  0  0  0  0
   -1.2261   -2.1939    0.4202 C   0  0  0  0  0  0  0  0  0  0  0  0
   -0.3181   -2.9519    0.7312 O   0  0  0  0  0  0  0  0  0  0  0  0
   -1.0281   -0.9259    0.0662 N   0  0  0  0  0  0  0  0  0  0  0  0
   -1.8301   -0.3519   -0.1548 H   0  0  0  0  0  0  0  0  0  0  0  0
    0.2709   -0.2409    0.0912 C   0  0  1  0  0  0  0  0  0  0  0  0
    0.5144    0.0122    1.1233 H   0  0  0  0  0  0  0  0  0  0  0  0
    1.3651   -1.1769   -0.4381 C   0  0  0  0  0  0  0  0  0  0  0  0
    2.3369   -0.6950   -0.3183 H   0  0  0  0  0  0  0  0  0  0  0  0
    1.3595   -2.1056    0.1353 H   0  0  0  0  0  0  0  0  0  0  0  0
    1.1651   -1.4630   -1.8097 O   0  0  0  0  0  0  0  0  0  0  0  0
    1.9545   -1.9021   -2.1443 H   0  0  0  0  0  0  0  0  0  0  0  0
    0.2084    1.0656   -0.7176 C   0  0  0  0  0  0  0  0  0  0  0  0
    0.4496    2.1418   -0.1696 O   0  0  0  0  0  0  0  0  0  0  0  0
   -0.1007    0.9778   -2.0158 N   0  0  0  0  0  0  0  0  0  0  0  0
   -0.3730    0.0647   -2.3548 H   0  0  0  0  0  0  0  0  0  0  0  0
   -0.1823    2.1151   -2.9301 C   0  0  0  0  0  0  0  0  0  0  0  0
    0.6808    2.7685   -2.7857 H   0  0  0  0  0  0  0  0  0  0  0  0
   -0.1999    1.7667   -3.9632 H   0  0  0  0  0  0  0  0  0  0  0  0
   -1.0905    2.6857   -2.7250 H   0  0  0  0  0  0  0  0  0  0  0  0
  5  6  2  0  0  0  0
  5  7  1  0  0  0  0
  2  3  1  0  0  0  0
  2  4  1  0  0  0  0
  2  5  1  0  0  0  0
  1  2  1  0  0  0  0
 16 17  2  0  0  0  0
 16 18  1  0  0  0  0
 14 15  1  0  0  0  0
 11 12  1  0  0  0  0
 11 13  1  0  0  0  0
 11 14  1  0  0  0  0
  9 10  1  0  0  0  0
  9 11  1  0  0  0  0
  9 16  1  0  0  0  0
  7  8  1  0  0  0  0
  7  9  1  0  0  0  0
 20 21  1  0  0  0  0
 20 22  1  0  0  0  0
 20 23  1  0  0  0  0
 18 19  1  0  0  0  0
 18 20  1  0  0  0  0
M  END
$$$$
default_name
  -OEChem-01062215323D

 23 22  0     1  0  0  0  0  0999 V2000
   -2.6721   -3.7279    0.7212 H   0  0  0  0  0  0  0  0  0  0  0  0
   -2.6561   -2.6819    0.4162 C   0  0  0  0  0  0  0  0  0  0  0  0
   -3.2401   -2.0889    1.1172 H   0  0  0  0  0  0  0  0  0  0  0  0
   -3.0671   -2.5859   -0.5858 H   0  0  0  0  0  0  0  0  0  0  0  0
   -1.2261   -2.1939    0.4202 C   0  0  0  0  0  0  0  0  0  0  0  0
   -0.3181   -2.9519    0.7312 O   0  0  0  0  0  0  0  0  0  0  0  0
   -1.0281   -0.9259    0.0662 N   0  0  0  0  0  0  0  0  0  0  0  0
   -1.8301   -0.3519   -0.1548 H   0  0  0  0  0  0  0  0  0  0  0  0
    0.2709   -0.2409    0.0912 C   0  0  1  0  0  0  0  0  0  0  0  0
    0.5144    0.0122    1.1233 H   0  0  0  0  0  0  0  0  0  0  0  0
    1.3651   -1.1769   -0.4381 C   0  0  0  0  0  0  0  0  0  0  0  0
    2.3369   -0.6950   -0.3183 H   0  0  0  0  0  0  0  0  0  0  0  0
    1.3595   -2.1056    0.1353 H   0  0  0  0  0  0  0  0  0  0  0  0
    1.1651   -1.4630   -1.8097 O   0  0  0  0  0  0  0  0  0  0  0  0
    1.9545   -1.9021   -2.1443 H   0  0  0  0  0  0  0  0  0  0  0  0
    0.2084    1.0656   -0.7176 C   0  0  0  0  0  0  0  0  0  0  0  0
    0.7075    2.0959   -0.2637 O   0  0  0  0  0  0  0  0  0  0  0  0
   -0.3884    1.0272   -1.9137 N   0  0  0  0  0  0  0  0  0  0  0  0
   -0.8495    0.1618   -2.1612 H   0  0  0  0  0  0  0  0  0  0  0  0
   -0.5155    2.1693   -2.8170 C   0  0  0  0  0  0  0  0  0  0  0  0
    0.4382    2.6972   -2.8820 H   0  0  0  0  0  0  0  0  0  0  0  0
   -0.8074    1.8314   -3.8118 H   0  0  0  0  0  0  0  0  0  0  0  0
   -1.2706    2.8581   -2.4326 H   0  0  0  0  0  0  0  0  0  0  0  0
  5  6  2  0  0  0  0
  5  7  1  0  0  0  0
  2  3  1  0  0  0  0
  2  4  1  0  0  0  0
  2  5  1  0  0  0  0
  1  2  1  0  0  0  0
 16 17  2  0  0  0  0
 16 18  1  0  0  0  0
 14 15  1  0  0  0  0
 11 12  1  0  0  0  0
 11 13  1  0  0  0  0
 11 14  1  0  0  0  0
  9 10  1  0  0  0  0
  9 11  1  0  0  0  0
  9 16  1  0  0  0  0
  7  8  1  0  0  0  0
  7  9  1  0  0  0  0
 20 21  1  0  0  0  0
 20 22  1  0  0  0  0
 20 23  1  0  0  0  0
 18 19  1  0  0  0  0
 18 20  1  0  0  0  0
M  END
$$$$
default_name
  -OEChem-01062215323D

 23 22  0     1  0  0  0  0  0999 V2000
   -2.6721   -3.7279    0.7212 H   0  0  0  0  0  0  0  0  0  0  0  0
   -2.6561   -2.6819    0.4162 C   0  0  0  0  0  0  0  0  0  0  0  0
   -3.2401   -2.0889    1.1172 H   0  0  0  0  0  0  0  0  0  0  0  0
   -3.0671   -2.5859   -0.5858 H   0  0  0  0  0  0  0  0  0  0  0  0
   -1.2261   -2.1939    0.4202 C   0  0  0  0  0  0  0  0  0  0  0  0
   -0.3181   -2.9519    0.7312 O   0  0  0  0  0  0  0  0  0  0  0  0
   -1.0281   -0.9259    0.0662 N   0  0  0  0  0  0  0  0  0  0  0  0
   -1.8301   -0.3519   -0.1548 H   0  0  0  0  0  0  0  0  0  0  0  0
    0.2709   -0.2409    0.0912 C   0  0  1  0  0  0  0  0  0  0  0  0
    0.5144    0.0122    1.1233 H   0  0  0  0  0  0  0  0  0  0  0  0
    1.3651   -1.1769   -0.4381 C   0  0  0  0  0  0  0  0  0  0  0  0
    2.3369   -0.6950   -0.3183 H   0  0  0  0  0  0  0  0  0  0  0  0
    1.3595   -2.1056    0.1353 H   0  0  0  0  0  0  0  0  0  0  0  0
    1.1651   -1.4630   -1.8097 O   0  0  0  0  0  0  0  0  0  0  0  0
    1.9545   -1.9021   -2.1443 H   0  0  0  0  0  0  0  0  0  0  0  0
    0.2084    1.0656   -0.7176 C   0  0  0  0  0  0  0  0  0  0  0  0
    0.9297    2.0155   -0.4108 O   0  0  0  0  0  0  0  0  0  0  0  0
   -0.6372    1.1152   -1.7525 N   0  0  0  0  0  0  0  0  0  0  0  0
   -1.2540    0.3224   -1.8705 H   0  0  0  0  0  0  0  0  0  0  0  0
   -0.8051    2.2681   -2.6350 C   0  0  0  0  0  0  0  0  0  0  0  0
    0.1731    2.6604   -2.9210 H   0  0  0  0  0  0  0  0  0  0  0  0
   -1.3522    1.9782   -3.5326 H   0  0  0  0  0  0  0  0  0  0  0  0
   -1.3568    3.0523   -2.1123 H   0  0  0  0  0  0  0  0  0  0  0  0
  5  6  2  0  0  0  0
  5  7  1  0  0  0  0
  2  3  1  0  0  0  0
  2  4  1  0  0  0  0
  2  5  1  0  0  0  0
  1  2  1  0  0  0  0
 16 17  2  0  0  0  0
 16 18  1  0  0  0  0
 14 15  1  0  0  0  0
 11 12  1  0  0  0  0
 11 13  1  0  0  0  0
 11 14  1  0  0  0  0
  9 10  1  0  0  0  0
  9 11  1  0  0  0  0
  9 16  1  0  0  0  0
  7  8  1  0  0  0  0
  7  9  1  0  0  0  0
 20 21  1  0  0  0  0
 20 22  1  0  0  0  0
 20 23  1  0  0  0  0
 18 19  1  0  0  0  0
 18 20  1  0  0  0  0
M  END
$$$$
default_name
  -OEChem-01062215323D

 23 22  0     1  0  0  0  0  0999 V2000
   -2.6721   -3.7279    0.7212 H   0  0  0  0  0  0  0  0  0  0  0  0
   -2.6561   -2.6819    0.4162 C   0  0  0  0  0  0  0  0  0  0  0  0
   -3.2401   -2.0889    1.1172 H   0  0  0  0  0  0  0  0  0  0  0  0
   -3.0671   -2.5859   -0.5858 H   0  0  0  0  0  0  0  0  0  0  0  0
   -1.2261   -2.1939    0.4202 C   0  0  0  0  0  0  0  0  0  0  0  0
   -0.3181   -2.9519    0.7312 O   0  0  0  0  0  0  0  0  0  0  0  0
   -1.0281   -0.9259    0.0662 N   0  0  0  0  0  0  0  0  0  0  0  0
   -1.8301   -0.3519   -0.1548 H   0  0  0  0  0  0  0  0  0  0  0  0
    0.2709   -0.2409    0.0912 C   0  0  1  0  0  0  0  0  0  0  0  0
    0.5144    0.0122    1.1233 H   0  0  0  0  0  0  0  0  0  0  0  0
    1.3651   -1.1769   -0.4381 C   0  0  0  0  0  0  0  0  0  0  0  0
    2.3369   -0.6950   -0.3183 H   0  0  0  0  0  0  0  0  0  0  0  0
    1.3595   -2.1056    0.1353 H   0  0  0  0  0  0  0  0  0  0  0  0
    1.1651   -1.4630   -1.8097 O   0  0  0  0  0  0  0  0  0  0  0  0
    1.9545   -1.9021   -2.1443 H   0  0  0  0  0  0  0  0  0  0  0  0
    0.2084    1.0656   -0.7176 C   0  0  0  0  0  0  0  0  0  0  0  0
    1.1011    1.9060   -0.6009 O   0  0  0  0  0  0  0  0  0  0  0  0
   -0.8301    1.2357   -1.5429 N   0  0  0  0  0  0  0  0  0  0  0  0
   -1.5589    0.5356   -1.5025 H   0  0  0  0  0  0  0  0  0  0  0  0
   -1.0314    2.4049   -2.3965 C   0  0  0  0  0  0  0  0  0  0  0  0
   -0.0966    2.6605   -2.9000 H   0  0  0  0  0  0  0  0  0  0  0  0
   -1.7969    2.1971   -3.1447 H   0  0  0  0  0  0  0  0  0  0  0  0
   -1.3431    3.2549   -1.7860 H   0  0  0  0  0  0  0  0  0  0  0  0
  5  6  2  0  0  0  0
  5  7  1  0  0  0  0
  2  3  1  0  0  0  0
  2  4  1  0  0  0  0
  2  5  1  0  0  0  0
  1  2  1  0  0  0  0
 16 17  2  0  0  0  0
 16 18  1  0  0  0  0
 14 15  1  0  0  0  0
 11 12  1  0  0  0  0
 11 13  1  0  0  0  0
 11 14  1  0  0  0  0
  9 10  1  0  0  0  0
  9 11  1  0  0  0  0
  9 16  1  0  0  0  0
  7  8  1  0  0  0  0
  7  9  1  0  0  0  0
 20 21  1  0  0  0  0
 20 22  1  0  0  0  0
 20 23  1  0  0  0  0
 18 19  1  0  0  0  0
 18 20  1  0  0  0  0
M  END
$$$$
default_name
  -OEChem-01062215323D

 23 22  0     1  0  0  0  0  0999 V2000
   -2.6721   -3.7279    0.7212 H   0  0  0  0  0  0  0  0  0  0  0  0
   -2.6561   -2.6819    0.4162 C   0  0  0  0  0  0  0  0  0  0  0  0
   -3.2401   -2.0889    1.1172 H   0  0  0  0  0  0  0  0  0  0  0  0
   -3.0671   -2.5859   -0.5858 H   0  0  0  0  0  0  0  0  0  0  0  0
   -1.2261   -2.1939    0.4202 C   0  0  0  0  0  0  0  0  0  0  0  0
   -0.3181   -2.9519    0.7312 O   0  0  0  0  0  0  0  0  0  0  0  0
   -1.0281   -0.9259    0.0662 N   0  0  0  0  0  0  0  0  0  0  0  0
   -1.8301   -0.3519   -0.1548 H   0  0  0  0  0  0  0  0  0  0  0  0
    0.2709   -0.2409    0.0912 C   0  0  1  0  0  0  0  0  0  0  0  0
    0.5144    0.0122    1.1233 H   0  0  0  0  0  0  0  0  0  0  0  0
    1.3651   -1.1769   -0.4381 C   0  0  0  0  0  0  0  0  0  0  0  0
    2.3369   -0.6950   -0.3183 H   0  0  0  0  0  0  0  0  0  0  0  0
    1.3595   -2.1056    0.1353 H   0  0  0  0  0  0  0  0  0  0  0  0
    1.1651   -1.4630   -1.8097 O   0  0  0  0  0  0  0  0  0  0  0  0
    1.9545   -1.9021   -2.1443 H   0  0  0  0  0  0  0  0  0  0  0  0
    0.2084    1.0656   -0.7176 C   0  0  0  0  0  0  0  0  0  0  0  0
    1.2099    1.7749   -0.8210 O   0  0  0  0  0  0  0  0  0  0  0  0
   -0.9539    1.3805   -1.2993 N   0  0  0  0  0  0  0  0  0  0  0  0
   -1.7434    0.7870   -1.0822 H   0  0  0  0  0  0  0  0  0  0  0  0
   -1.1789    2.5703   -2.1179 C   0  0  0  0  0  0  0  0  0  0  0  0
   -0.3525    2.6976   -2.8204 H   0  0  0  0  0  0  0  0  0  0  0  0
   -2.1115    2.4731   -2.6745 H   0  0  0  0  0  0  0  0  0  0  0  0
   -1.2306    3.4522   -1.4760 H   0  0  0  0  0  0  0  0  0  0  0  0
  5  6  2  0  0  0  0
  5  7  1  0  0  0  0
  2  3  1  0  0  0  0
  2  4  1  0  0  0  0
  2  5  1  0  0  0  0
  1  2  1  0  0  0  0
 16 17  2  0  0  0  0
 16 18  1  0  0  0  0
 14 15  1  0  0  0  0
 11 12  1  0  0  0  0
 11 13  1  0  0  0  0
 11 14  1  0  0  0  0
  9 10  1  0  0  0  0
  9 11  1  0  0  0  0
  9 16  1  0  0  0  0
  7  8  1  0  0  0  0
  7  9  1  0  0  0  0
 20 21  1  0  0  0  0
 20 22  1  0  0  0  0
 20 23  1  0  0  0  0
 18 19  1  0  0  0  0
 18 20  1  0  0  0  0
M  END
$$$$
default_name
  -OEChem-01062215323D

 23 22  0     1  0  0  0  0  0999 V2000
   -2.6721   -3.7279    0.7212 H   0  0  0  0  0  0  0  0  0  0  0  0
   -2.6561   -2.6819    0.4162 C   0  0  0  0  0  0  0  0  0  0  0  0
   -3.2401   -2.0889    1.1172 H   0  0  0  0  0  0  0  0  0  0  0  0
   -3.0671   -2.5859   -0.5858 H   0  0  0  0  0  0  0  0  0  0  0  0
   -1.2261   -2.1939    0.4202 C   0  0  0  0  0  0  0  0  0  0  0  0
   -0.3181   -2.9519    0.7312 O   0  0  0  0  0  0  0  0  0  0  0  0
   -1.0281   -0.9259    0.0662 N   0  0  0  0  0  0  0  0  0  0  0  0
   -1.8301   -0.3519   -0.1548 H   0  0  0  0  0  0  0  0  0  0  0  0
    0.2709   -0.2409    0.0912 C   0  0  1  0  0  0  0  0  0  0  0  0
    0.5144    0.0122    1.1233 H   0  0  0  0  0  0  0  0  0  0  0  0
    1.3651   -1.1769   -0.4381 C   0  0  0  0  0  0  0  0  0  0  0  0
    2.3369   -0.6950   -0.3183 H   0  0  0  0  0  0  0  0  0  0  0  0
    1.3595   -2.1056    0.1353 H   0  0  0  0  0  0  0  0  0  0  0  0
    1.1651   -1.4630   -1.8097 O   0  0  0  0  0  0  0  0  0  0  0  0
    1.9545   -1.9021   -2.1443 H   0  0  0  0  0  0  0  0  0  0  0  0
    0.2084    1.0656   -0.7176 C   0  0  0  0  0  0  0  0  0  0  0  0
    1.2487    1.6312   -1.0562 O   0  0  0  0  0  0  0  0  0  0  0  0
   -1.0002    1.5399   -1.0384 N   0  0  0  0  0  0  0  0  0  0  0  0
   -1.7950    1.0593   -0.6383 H   0  0  0  0  0  0  0  0  0  0  0  0
   -1.2376    2.7531   -1.8181 C   0  0  0  0  0  0  0  0  0  0  0  0
   -0.5771    2.7690   -2.6876 H   0  0  0  0  0  0  0  0  0  0  0  0
   -2.2743    2.7875   -2.1540 H   0  0  0  0  0  0  0  0  0  0  0  0
   -1.0269    3.6307   -1.2033 H   0  0  0  0  0  0  0  0  0  0  0  0
  5  6  2  0  0  0  0
  5  7  1  0  0  0  0
  2  3  1  0  0  0  0
  2  4  1  0  0  0  0
  2  5  1  0  0  0  0
  1  2  1  0  0  0  0
 16 17  2  0  0  0  0
 16 18  1  0  0  0  0
 14 15  1  0  0  0  0
 11 12  1  0  0  0  0
 11 13  1  0  0  0  0
 11 14  1  0  0  0  0
  9 10  1  0  0  0  0
  9 11  1  0  0  0  0
  9 16  1  0  0  0  0
  7  8  1  0  0  0  0
  7  9  1  0  0  0  0
 20 21  1  0  0  0  0
 20 22  1  0  0  0  0
 20 23  1  0  0  0  0
 18 19  1  0  0  0  0
 18 20  1  0  0  0  0
M  END
$$$$
default_name
  -OEChem-01062215323D

 23 22  0     1  0  0  0  0  0999 V2000
   -2.6721   -3.7279    0.7212 H   0  0  0  0  0  0  0  0  0  0  0  0
   -2.6561   -2.6819    0.4162 C   0  0  0  0  0  0  0  0  0  0  0  0
   -3.2401   -2.0889    1.1172 H   0  0  0  0  0  0  0  0  0  0  0  0
   -3.0671   -2.5859   -0.5858 H   0  0  0  0  0  0  0  0  0  0  0  0
   -1.2261   -2.1939    0.4202 C   0  0  0  0  0  0  0  0  0  0  0  0
   -0.3181   -2.9519    0.7312 O   0  0  0  0  0  0  0  0  0  0  0  0
   -1.0281   -0.9259    0.0662 N   0  0  0  0  0  0  0  0  0  0  0  0
   -1.8301   -0.3519   -0.1548 H   0  0  0  0  0  0  0  0  0  0  0  0
    0.2709   -0.2409    0.0912 C   0  0  1  0  0  0  0  0  0  0  0  0
    0.5144    0.0122    1.1233 H   0  0  0  0  0  0  0  0  0  0  0  0
    1.3651   -1.1769   -0.4381 C   0  0  0  0  0  0  0  0  0  0  0  0
    2.3369   -0.6950   -0.3183 H   0  0  0  0  0  0  0  0  0  0  0  0
    1.3595   -2.1056    0.1353 H   0  0  0  0  0  0  0  0  0  0  0  0
    1.1651   -1.4630   -1.8097 O   0  0  0  0  0  0  0  0  0  0  0  0
    1.9545   -1.9021   -2.1443 H   0  0  0  0  0  0  0  0  0  0  0  0
    0.2084    1.0656   -0.7176 C   0  0  0  0  0  0  0  0  0  0  0  0
    1.2149    1.4846   -1.2904 O   0  0  0  0  0  0  0  0  0  0  0  0
   -0.9658    1.7028   -0.7778 N   0  0  0  0  0  0  0  0  0  0  0  0
   -1.7102    1.3341   -0.2010 H   0  0  0  0  0  0  0  0  0  0  0  0
   -1.2035    2.9408   -1.5175 C   0  0  0  0  0  0  0  0  0  0  0  0
   -0.7552    2.8700   -2.5108 H   0  0  0  0  0  0  0  0  0  0  0  0
   -2.2744    3.1188   -1.6188 H   0  0  0  0  0  0  0  0  0  0  0  0
   -0.7459    3.7783   -0.9866 H   0  0  0  0  0  0  0  0  0  0  0  0
  5  6  2  0  0  0  0
  5  7  1  0  0  0  0
  2  3  1  0  0  0  0
  2  4  1  0  0  0  0
  2  5  1  0  0  0  0
  1  2  1  0  0  0  0
 16 17  2  0  0  0  0
 16 18  1  0  0  0  0
 14 15  1  0  0  0  0
 11 12  1  0  0  0  0
 11 13  1  0  0  0  0
 11 14  1  0  0  0  0
  9 10  1  0  0  0  0
  9 11  1  0  0  0  0
  9 16  1  0  0  0  0
  7  8  1  0  0  0  0
  7  9  1  0  0  0  0
 20 21  1  0  0  0  0
 20 22  1  0  0  0  0
 20 23  1  0  0  0  0
 18 19  1  0  0  0  0
 18 20  1  0  0  0  0
M  END
$$$$
default_name
  -OEChem-01062215323D

 23 22  0     1  0  0  0  0  0999 V2000
   -2.6721   -3.7279    0.7212 H   0  0  0  0  0  0  0  0  0  0  0  0
   -2.6561   -2.6819    0.4162 C   0  0  0  0  0  0  0  0  0  0  0  0
   -3.2401   -2.0889    1.1172 H   0  0  0  0  0  0  0  0  0  0  0  0
   -3.0671   -2.5859   -0.5858 H   0  0  0  0  0  0  0  0  0  0  0  0
   -1.2261   -2.1939    0.4202 C   0  0  0  0  0  0  0  0  0  0  0  0
   -0.3181   -2.9519    0.7312 O   0  0  0  0  0  0  0  0  0  0  0  0
   -1.0281   -0.9259    0.0662 N   0  0  0  0  0  0  0  0  0  0  0  0
   -1.8301   -0.3519   -0.1548 H   0  0  0  0  0  0  0  0  0  0  0  0
    0.2709   -0.2409    0.0912 C   0  0  1  0  0  0  0  0  0  0  0  0
    0.5144    0.0122    1.1233 H   0  0  0  0  0  0  0  0  0  0  0  0
    1.3651   -1.1769   -0.4381 C   0  0  0  0  0  0  0  0  0  0  0  0
    2.3369   -0.6950   -0.3183 H   0  0  0  0  0  0  0  0  0  0  0  0
    1.3595   -2.1056    0.1353 H   0  0  0  0  0  0  0  0  0  0  0  0
    1.1651   -1.4630   -1.8097 O   0  0  0  0  0  0  0  0  0  0  0  0
    1.9545   -1.9021   -2.1443 H   0  0  0  0  0  0  0  0  0  0  0  0
    0.2084    1.0656   -0.7176 C   0  0  0  0  0  0  0  0  0  0  0  0
    1.1109    1.3452   -1.5076 O   0  0  0  0  0  0  0  0  0  0  0  0
   -0.8532    1.8583   -0.5354 N   0  0  0  0  0  0  0  0  0  0  0  0
   -1.4948    1.5925    0.1999 H   0  0  0  0  0  0  0  0  0  0  0  0
   -1.0788    3.1207   -1.2366 C   0  0  0  0  0  0  0  0  0  0  0  0
   -0.8745    2.9936   -2.3018 H   0  0  0  0  0  0  0  0  0  0  0  0
   -2.1117    3.4445   -1.1053 H   0  0  0  0  0  0  0  0  0  0  0  0
   -0.4068    3.8849   -0.8407 H   0  0  0  0  0  0  0  0  0  0  0  0
  5  6  2  0  0  0  0
  5  7  1  0  0  0  0
  2  3  1  0  0  0  0
  2  4  1  0  0  0  0
  2  5  1  0  0  0  0
  1  2  1  0  0  0  0
 16 17  2  0  0  0  0
 16 18  1  0  0  0  0
 14 15  1  0  0  0  0
 11 12  1  0  0  0  0
 11 13  1  0  0  0  0
 11 14  1  0  0  0  0
  9 10  1  0  0  0  0
  9 11  1  0  0  0  0
  9 16  1  0  0  0  0
  7  8  1  0  0  0  0
  7  9  1  0  0  0  0
 20 21  1  0  0  0  0
 20 22  1  0  0  0  0
 20 23  1  0  0  0  0
 18 19  1  0  0  0  0
 18 20  1  0  0  0  0
M  END
$$$$
default_name
  -OEChem-01062215323D

 23 22  0     1  0  0  0  0  0999 V2000
   -2.6721   -3.7279    0.7212 H   0  0  0  0  0  0  0  0  0  0  0  0
   -2.6561   -2.6819    0.4162 C   0  0  0  0  0  0  0  0  0  0  0  0
   -3.2401   -2.0889    1.1172 H   0  0  0  0  0  0  0  0  0  0  0  0
   -3.0671   -2.5859   -0.5858 H   0  0  0  0  0  0  0  0  0  0  0  0
   -1.2261   -2.1939    0.4202 C   0  0  0  0  0  0  0  0  0  0  0  0
   -0.3181   -2.9519    0.7312 O   0  0  0  0  0  0  0  0  0  0  0  0
   -1.0281   -0.9259    0.0662 N   0  0  0  0  0  0  0  0  0  0  0  0
   -1.8301   -0.3519   -0.1548 H   0  0  0  0  0  0  0  0  0  0  0  0
    0.2709   -0.2409    0.0912 C   0  0  1  0  0  0  0  0  0  0  0  0
    0.5144    0.0122    1.1233 H   0  0  0  0  0  0  0  0  0  0  0  0
    1.3651   -1.1769   -0.4381 C   0  0  0  0  0  0  0  0  0  0  0  0
    2.3369   -0.6950   -0.3183 H   0  0  0  0  0  0  0  0  0  0  0  0
    1.3595   -2.1056    0.1353 H   0  0  0  0  0  0  0  0  0  0  0  0
    1.1651   -1.4630   -1.8097 O   0  0  0  0  0  0  0  0  0  0  0  0
    1.9545   -1.9021   -2.1443 H   0  0  0  0  0  0  0  0  0  0  0  0
    0.2084    1.0656   -0.7176 C   0  0  0  0  0  0  0  0  0  0  0  0
    0.9436    1.2223   -1.6931 O   0  0  0  0  0  0  0  0  0  0  0  0
   -0.6699    1.9956   -0.3276 N   0  0  0  0  0  0  0  0  0  0  0  0
   -1.1634    1.8170    0.5370 H   0  0  0  0  0  0  0  0  0  0  0  0
   -0.8722    3.2804   -0.9946 C   0  0  0  0  0  0  0  0  0  0  0  0
   -0.9270    3.1315   -2.0751 H   0  0  0  0  0  0  0  0  0  0  0  0
   -1.7973    3.7423   -0.6485 H   0  0  0  0  0  0  0  0  0  0  0  0
   -0.0326    3.9432   -0.7753 H   0  0  0  0  0  0  0  0  0  0  0  0
  5  6  2  0  0  0  0
  5  7  1  0  0  0  0
  2  3  1  0  0  0  0
  2  4  1  0  0  0  0
  2  5  1  0  0  0  0
  1  2  1  0  0  0  0
 16 17  2  0  0  0  0
 16 18  1  0  0  0  0
 14 15  1  0  0  0  0
 11 12  1  0  0  0  0
 11 13  1  0  0  0  0
 11 14  1  0  0  0  0
  9 10  1  0  0  0  0
  9 11  1  0  0  0  0
  9 16  1  0  0  0  0
  7  8  1  0  0  0  0
  7  9  1  0  0  0  0
 20 21  1  0  0  0  0
 20 22  1  0  0  0  0
 20 23  1  0  0  0  0
 18 19  1  0  0  0  0
 18 20  1  0  0  0  0
M  END
$$$$
default_name
  -OEChem-01062215323D

 23 22  0     1  0  0  0  0  0999 V2000
   -2.6721   -3.7279    0.7212 H   0  0  0  0  0  0  0  0  0  0  0  0
   -2.6561   -2.6819    0.4162 C   0  0  0  0  0  0  0  0  0  0  0  0
   -3.2401   -2.0889    1.1172 H   0  0  0  0  0  0  0  0  0  0  0  0
   -3.0671   -2.5859   -0.5858 H   0  0  0  0  0  0  0  0  0  0  0  0
   -1.2261   -2.1939    0.4202 C   0  0  0  0  0  0  0  0  0  0  0  0
   -0.3181   -2.9519    0.7312 O   0  0  0  0  0  0  0  0  0  0  0  0
   -1.0281   -0.9259    0.0662 N   0  0  0  0  0  0  0  0  0  0  0  0
   -1.8301   -0.3519   -0.1548 H   0  0  0  0  0  0  0  0  0  0  0  0
    0.2709   -0.2409    0.0912 C   0  0  1  0  0  0  0  0  0  0  0  0
    0.5144    0.0122    1.1233 H   0  0  0  0  0  0  0  0  0  0  0  0
    1.3651   -1.1769   -0.4381 C   0  0  0  0  0  0  0  0  0  0  0  0
    2.3369   -0.6950   -0.3183 H   0  0  0  0  0  0  0  0  0  0  0  0
    1.3595   -2.1056    0.1353 H   0  0  0  0  0  0  0  0  0  0  0  0
    1.1651   -1.4630   -1.8097 O   0  0  0  0  0  0  0  0  0  0  0  0
    1.9545   -1.9021   -2.1443 H   0  0  0  0  0  0  0  0  0  0  0  0
    0.2084    1.0656   -0.7176 C   0  0  0  0  0  0  0  0  0  0  0  0
    0.7245    1.1245   -1.8342 O   0  0  0  0  0  0  0  0  0  0  0  0
   -0.4285    2.1056   -0.1687 N   0  0  0  0  0  0  0  0  0  0  0  0
   -0.7385    1.9923    0.7873 H   0  0  0  0  0  0  0  0  0  0  0  0
   -0.5977    3.4090   -0.8079 C   0  0  0  0  0  0  0  0  0  0  0  0
   -0.9091    3.2742   -1.8459 H   0  0  0  0  0  0  0  0  0  0  0  0
   -1.3527    3.9920   -0.2795 H   0  0  0  0  0  0  0  0  0  0  0  0
    0.3512    3.9492   -0.7952 H   0  0  0  0  0  0  0  0  0  0  0  0
  5  6  2  0  0  0  0
  5  7  1  0  0  0  0
  2  3  1  0  0  0  0
  2  4  1  0  0  0  0
  2  5  1  0  0  0  0
  1  2  1  0  0  0  0
 16 17  2  0  0  0  0
 16 18  1  0  0  0  0
 14 15  1  0  0  0  0
 11 12  1  0  0  0  0
 11 13  1  0  0  0  0
 11 14  1  0  0  0  0
  9 10  1  0  0  0  0
  9 11  1  0  0  0  0
  9 16  1  0  0  0  0
  7  8  1  0  0  0  0
  7  9  1  0  0  0  0
 20 21  1  0  0  0  0
 20 22  1  0  0  0  0
 20 23  1  0  0  0  0
 18 19  1  0  0  0  0
 18 20  1  0  0  0  0
M  END
$$$$
default_name
  -OEChem-01062215323D

 23 22  0     1  0  0  0  0  0999 V2000
   -2.6721   -3.7279    0.7212 H   0  0  0  0  0  0  0  0  0  0  0  0
   -2.6561   -2.6819    0.4162 C   0  0  0  0  0  0  0  0  0  0  0  0
   -3.2401   -2.0889    1.1172 H   0  0  0  0  0  0  0  0  0  0  0  0
   -3.0671   -2.5859   -0.5858 H   0  0  0  0  0  0  0  0  0  0  0  0
   -1.2261   -2.1939    0.4202 C   0  0  0  0  0  0  0  0  0  0  0  0
   -0.3181   -2.9519    0.7312 O   0  0  0  0  0  0  0  0  0  0  0  0
   -1.0281   -0.9259    0.0662 N   0  0  0  0  0  0  0  0  0  0  0  0
   -1.8301   -0.3519   -0.1548 H   0  0  0  0  0  0  0  0  0  0  0  0
    0.2709   -0.2409    0.0912 C   0  0  1  0  0  0  0  0  0  0  0  0
    0.5144    0.0122    1.1233 H   0  0  0  0  0  0  0  0  0  0  0  0
    1.3651   -1.1769   -0.4381 C   0  0  0  0  0  0  0  0  0  0  0  0
    2.3369   -0.6950   -0.3183 H   0  0  0  0  0  0  0  0  0  0  0  0
    1.3595   -2.1056    0.1353 H   0  0  0  0  0  0  0  0  0  0  0  0
    1.1651   -1.4630   -1.8097 O   0  0  0  0  0  0  0  0  0  0  0  0
    1.9545   -1.9021   -2.1443 H   0  0  0  0  0  0  0  0  0  0  0  0
    0.2084    1.0656   -0.7176 C   0  0  0  0  0  0  0  0  0  0  0  0
    0.4686    1.0584   -1.9213 O   0  0  0  0  0  0  0  0  0  0  0  0
   -0.1454    2.1806   -0.0694 N   0  0  0  0  0  0  0  0  0  0  0  0
   -0.2493    2.1064    0.9339 H   0  0  0  0  0  0  0  0  0  0  0  0
   -0.2740    3.4979   -0.6893 C   0  0  0  0  0  0  0  0  0  0  0  0
   -0.8219    3.4120   -1.6301 H   0  0  0  0  0  0  0  0  0  0  0  0
   -0.8080    4.1765   -0.0235 H   0  0  0  0  0  0  0  0  0  0  0  0
    0.7183    3.9027   -0.8987 H   0  0  0  0  0  0  0  0  0  0  0  0
  5  6  2  0  0  0  0
  5  7  1  0  0  0  0
  2  3  1  0  0  0  0
  2  4  1  0  0  0  0
  2  5  1  0  0  0  0
  1  2  1  0  0  0  0
 16 17  2  0  0  0  0
 16 18  1  0  0  0  0
 14 15  1  0  0  0  0
 11 12  1  0  0  0  0
 11 13  1  0  0  0  0
 11 14  1  0  0  0  0
  9 10  1  0  0  0  0
  9 11  1  0  0  0  0
  9 16  1  0  0  0  0
  7  8  1  0  0  0  0
  7  9  1  0  0  0  0
 20 21  1  0  0  0  0
 20 22  1  0  0  0  0
 20 23  1  0  0  0  0
 18 19  1  0  0  0  0
 18 20  1  0  0  0  0
M  END
$$$$
default_name
  -OEChem-01062215323D

 23 22  0     1  0  0  0  0  0999 V2000
   -2.6721   -3.7279    0.7212 H   0  0  0  0  0  0  0  0  0  0  0  0
   -2.6561   -2.6819    0.4162 C   0  0  0  0  0  0  0  0  0  0  0  0
   -3.2401   -2.0889    1.1172 H   0  0  0  0  0  0  0  0  0  0  0  0
   -3.0671   -2.5859   -0.5858 H   0  0  0  0  0  0  0  0  0  0  0  0
   -1.2261   -2.1939    0.4202 C   0  0  0  0  0  0  0  0  0  0  0  0
   -0.3181   -2.9519    0.7312 O   0  0  0  0  0  0  0  0  0  0  0  0
   -1.0281   -0.9259    0.0662 N   0  0  0  0  0  0  0  0  0  0  0  0
   -1.8301   -0.3519   -0.1548 H   0  0  0  0  0  0  0  0  0  0  0  0
    0.2709   -0.2409    0.0912 C   0  0  1  0  0  0  0  0  0  0  0  0
    0.5144    0.0122    1.1233 H   0  0  0  0  0  0  0  0  0  0  0  0
    1.3651   -1.1769   -0.4381 C   0  0  0  0  0  0  0  0  0  0  0  0
    2.3369   -0.6950   -0.3183 H   0  0  0  0  0  0  0  0  0  0  0  0
    1.3595   -2.1056    0.1353 H   0  0  0  0  0  0  0  0  0  0  0  0
    1.1651   -1.4630   -1.8097 O   0  0  0  0  0  0  0  0  0  0  0  0
    1.9545   -1.9021   -2.1443 H   0  0  0  0  0  0  0  0  0  0  0  0
    0.2084    1.0656   -0.7176 C   0  0  0  0  0  0  0  0  0  0  0  0
    0.1932    1.0284   -1.9485 O   0  0  0  0  0  0  0  0  0  0  0  0
    0.1601    2.2155   -0.0365 N   0  0  0  0  0  0  0  0  0  0  0  0
    0.2711    2.1516    0.9667 H   0  0  0  0  0  0  0  0  0  0  0  0
    0.0769    3.5410   -0.6469 C   0  0  0  0  0  0  0  0  0  0  0  0
   -0.6716    3.5355   -1.4421 H   0  0  0  0  0  0  0  0  0  0  0  0
   -0.2005    4.2833    0.1021 H   0  0  0  0  0  0  0  0  0  0  0  0
    1.0438    3.8066   -1.0790 H   0  0  0  0  0  0  0  0  0  0  0  0
  5  6  2  0  0  0  0
  5  7  1  0  0  0  0
  2  3  1  0  0  0  0
  2  4  1  0  0  0  0
  2  5  1  0  0  0  0
  1  2  1  0  0  0  0
 16 17  2  0  0  0  0
 16 18  1  0  0  0  0
 14 15  1  0  0  0  0
 11 12  1  0  0  0  0
 11 13  1  0  0  0  0
 11 14  1  0  0  0  0
  9 10  1  0  0  0  0
  9 11  1  0  0  0  0
  9 16  1  0  0  0  0
  7  8  1  0  0  0  0
  7  9  1  0  0  0  0
 20 21  1  0  0  0  0
 20 22  1  0  0  0  0
 20 23  1  0  0  0  0
 18 19  1  0  0  0  0
 18 20  1  0  0  0  0
M  END
$$$$
default_name
  -OEChem-01062215323D

 23 22  0     1  0  0  0  0  0999 V2000
   -2.6721   -3.7279    0.7212 H   0  0  0  0  0  0  0  0  0  0  0  0
   -2.6561   -2.6819    0.4162 C   0  0  0  0  0  0  0  0  0  0  0  0
   -3.2401   -2.0889    1.1172 H   0  0  0  0  0  0  0  0  0  0  0  0
   -3.0671   -2.5859   -0.5858 H   0  0  0  0  0  0  0  0  0  0  0  0
   -1.2261   -2.1939    0.4202 C   0  0  0  0  0  0  0  0  0  0  0  0
   -0.3181   -2.9519    0.7312 O   0  0  0  0  0  0  0  0  0  0  0  0
   -1.0281   -0.9259    0.0662 N   0  0  0  0  0  0  0  0  0  0  0  0
   -1.8301   -0.3519   -0.1548 H   0  0  0  0  0  0  0  0  0  0  0  0
    0.2709   -0.2409    0.0912 C   0  0  1  0  0  0  0  0  0  0  0  0
    0.5144    0.0122    1.1233 H   0  0  0  0  0  0  0  0  0  0  0  0
    1.3651   -1.1769   -0.4381 C   0  0  0  0  0  0  0  0  0  0  0  0
    2.3369   -0.6950   -0.3183 H   0  0  0  0  0  0  0  0  0  0  0  0
    1.3595   -2.1056    0.1353 H   0  0  0  0  0  0  0  0  0  0  0  0
    1.1651   -1.4630   -1.8097 O   0  0  0  0  0  0  0  0  0  0  0  0
    1.9545   -1.9021   -2.1443 H   0  0  0  0  0  0  0  0  0  0  0  0
    0.2084    1.0656   -0.7176 C   0  0  0  0  0  0  0  0  0  0  0  0
   -0.0829    1.0366   -1.9138 O   0  0  0  0  0  0  0  0  0  0  0  0
    0.4671    2.2080   -0.0723 N   0  0  0  0  0  0  0  0  0  0  0  0
    0.7871    2.1248    0.8835 H   0  0  0  0  0  0  0  0  0  0  0  0
    0.4310    3.5352   -0.6835 C   0  0  0  0  0  0  0  0  0  0  0  0
   -0.4682    3.6363   -1.2950 H   0  0  0  0  0  0  0  0  0  0  0  0
    0.4284    4.3050    0.0887 H   0  0  0  0  0  0  0  0  0  0  0  0
    1.3056    3.6676   -1.3238 H   0  0  0  0  0  0  0  0  0  0  0  0
  5  6  2  0  0  0  0
  5  7  1  0  0  0  0
  2  3  1  0  0  0  0
  2  4  1  0  0  0  0
  2  5  1  0  0  0  0
  1  2  1  0  0  0  0
 16 17  2  0  0  0  0
 16 18  1  0  0  0  0
 14 15  1  0  0  0  0
 11 12  1  0  0  0  0
 11 13  1  0  0  0  0
 11 14  1  0  0  0  0
  9 10  1  0  0  0  0
  9 11  1  0  0  0  0
  9 16  1  0  0  0  0
  7  8  1  0  0  0  0
  7  9  1  0  0  0  0
 20 21  1  0  0  0  0
 20 22  1  0  0  0  0
 20 23  1  0  0  0  0
 18 19  1  0  0  0  0
 18 20  1  0  0  0  0
M  END
$$$$
default_name
  -OEChem-01062215323D

 23 22  0     1  0  0  0  0  0999 V2000
   -2.6721   -3.7279    0.7212 H   0  0  0  0  0  0  0  0  0  0  0  0
   -2.6561   -2.6819    0.4162 C   0  0  0  0  0  0  0  0  0  0  0  0
   -3.2401   -2.0889    1.1172 H   0  0  0  0  0  0  0  0  0  0  0  0
   -3.0671   -2.5859   -0.5858 H   0  0  0  0  0  0  0  0  0  0  0  0
   -1.2261   -2.1939    0.4202 C   0  0  0  0  0  0  0  0  0  0  0  0
   -0.3181   -2.9519    0.7312 O   0  0  0  0  0  0  0  0  0  0  0  0
   -1.0281   -0.9259    0.0662 N   0  0  0  0  0  0  0  0  0  0  0  0
   -1.8301   -0.3519   -0.1548 H   0  0  0  0  0  0  0  0  0  0  0  0
    0.2709   -0.2409    0.0912 C   0  0  1  0  0  0  0  0  0  0  0  0
    0.5144    0.0122    1.1233 H   0  0  0  0  0  0  0  0  0  0  0  0
    1.3651   -1.1769   -0.4381 C   0  0  0  0  0  0  0  0  0  0  0  0
    2.3369   -0.6950   -0.3183 H   0  0  0  0  0  0  0  0  0  0  0  0
    1.3595   -2.1056    0.1353 H   0  0  0  0  0  0  0  0  0  0  0  0
    1.1651   -1.4630   -1.8097 O   0  0  0  0  0  0  0  0  0  0  0  0
    1.9545   -1.9021   -2.1443 H   0  0  0  0  0  0  0  0  0  0  0  0
    0.2084    1.0656   -0.7176 C   0  0  0  0  0  0  0  0  0  0  0  0
   -0.3408    1.0825   -1.8198 O   0  0  0  0  0  0  0  0  0  0  0  0
    0.7549    2.1587   -0.1743 N   0  0  0  0  0  0  0  0  0  0  0  0
    1.2636    2.0277    0.6900 H   0  0  0  0  0  0  0  0  0  0  0  0
    0.7642    3.4811   -0.7966 C   0  0  0  0  0  0  0  0  0  0  0  0
   -0.2257    3.7076   -1.1986 H   0  0  0  0  0  0  0  0  0  0  0  0
    1.0359    4.2403   -0.0627 H   0  0  0  0  0  0  0  0  0  0  0  0
    1.4856    3.4952   -1.6162 H   0  0  0  0  0  0  0  0  0  0  0  0
  5  6  2  0  0  0  0
  5  7  1  0  0  0  0
  2  3  1  0  0  0  0
  2  4  1  0  0  0  0
  2  5  1  0  0  0  0
  1  2  1  0  0  0  0
 16 17  2  0  0  0  0
 16 18  1  0  0  0  0
 14 15  1  0  0  0  0
 11 12  1  0  0  0  0
 11 13  1  0  0  0  0
 11 14  1  0  0  0  0
  9 10  1  0  0  0  0
  9 11  1  0  0  0  0
  9 16  1  0  0  0  0
  7  8  1  0  0  0  0
  7  9  1  0  0  0  0
 20 21  1  0  0  0  0
 20 22  1  0  0  0  0
 20 23  1  0  0  0  0
 18 19  1  0  0  0  0
 18 20  1  0  0  0  0
M  END
$$$$
default_name
  -OEChem-01062215323D

 23 22  0     1  0  0  0  0  0999 V2000
   -2.6721   -3.7279    0.7212 H   0  0  0  0  0  0  0  0  0  0  0  0
   -2.6561   -2.6819    0.4162 C   0  0  0  0  0  0  0  0  0  0  0  0
   -3.2401   -2.0889    1.1172 H   0  0  0  0  0  0  0  0  0  0  0  0
   -3.0671   -2.5859   -0.5858 H   0  0  0  0  0  0  0  0  0  0  0  0
   -1.2261   -2.1939    0.4202 C   0  0  0  0  0  0  0  0  0  0  0  0
   -0.3181   -2.9519    0.7312 O   0  0  0  0  0  0  0  0  0  0  0  0
   -1.0281   -0.9259    0.0662 N   0  0  0  0  0  0  0  0  0  0  0  0
   -1.8301   -0.3519   -0.1548 H   0  0  0  0  0  0  0  0  0  0  0  0
    0.2709   -0.2409    0.0912 C   0  0  1  0  0  0  0  0  0  0  0  0
    0.5144    0.0122    1.1233 H   0  0  0  0  0  0  0  0  0  0  0  0
    1.3651   -1.1769   -0.4381 C   0  0  0  0  0  0  0  0  0  0  0  0
    2.3369   -0.6950   -0.3183 H   0  0  0  0  0  0  0  0  0  0  0  0
    1.3595   -2.1056    0.1353 H   0  0  0  0  0  0  0  0  0  0  0  0
    1.1651   -1.4630   -1.8097 O   0  0  0  0  0  0  0  0  0  0  0  0
    1.9545   -1.9021   -2.1443 H   0  0  0  0  0  0  0  0  0  0  0  0
    0.2084    1.0656   -0.7176 C   0  0  0  0  0  0  0  0  0  0  0  0
   -0.5630    1.1630   -1.6727 O   0  0  0  0  0  0  0  0  0  0  0  0
    1.0036    2.0707   -0.3356 N   0  0  0  0  0  0  0  0  0  0  0  0
    1.6680    1.8671    0.3993 H   0  0  0  0  0  0  0  0  0  0  0  0
    1.0538    3.3823   -0.9787 C   0  0  0  0  0  0  0  0  0  0  0  0
    0.0395    3.7444   -1.1596 H   0  0  0  0  0  0  0  0  0  0  0  0
    1.5806    4.0935   -0.3419 H   0  0  0  0  0  0  0  0  0  0  0  0
    1.5718    3.3011   -1.9365 H   0  0  0  0  0  0  0  0  0  0  0  0
  5  6  2  0  0  0  0
  5  7  1  0  0  0  0
  2  3  1  0  0  0  0
  2  4  1  0  0  0  0
  2  5  1  0  0  0  0
  1  2  1  0  0  0  0
 16 17  2  0  0  0  0
 16 18  1  0  0  0  0
 14 15  1  0  0  0  0
 11 12  1  0  0  0  0
 11 13  1  0  0  0  0
 11 14  1  0  0  0  0
  9 10  1  0  0  0  0
  9 11  1  0  0  0  0
  9 16  1  0  0  0  0
  7  8  1  0  0  0  0
  7  9  1  0  0  0  0
 20 21  1  0  0  0  0
 20 22  1  0  0  0  0
 20 23  1  0  0  0  0
 18 19  1  0  0  0  0
 18 20  1  0  0  0  0
M  END
$$$$
default_name
  -OEChem-01062215323D

 23 22  0     1  0  0  0  0  0999 V2000
   -2.6721   -3.7279    0.7212 H   0  0  0  0  0  0  0  0  0  0  0  0
   -2.6561   -2.6819    0.4162 C   0  0  0  0  0  0  0  0  0  0  0  0
   -3.2401   -2.0889    1.1172 H   0  0  0  0  0  0  0  0  0  0  0  0
   -3.0671   -2.5859   -0.5858 H   0  0  0  0  0  0  0  0  0  0  0  0
   -1.2261   -2.1939    0.4202 C   0  0  0  0  0  0  0  0  0  0  0  0
   -0.3181   -2.9519    0.7312 O   0  0  0  0  0  0  0  0  0  0  0  0
   -1.0281   -0.9259    0.0662 N   0  0  0  0  0  0  0  0  0  0  0  0
   -1.8301   -0.3519   -0.1548 H   0  0  0  0  0  0  0  0  0  0  0  0
    0.2709   -0.2409    0.0912 C   0  0  1  0  0  0  0  0  0  0  0  0
    0.5144    0.0122    1.1233 H   0  0  0  0  0  0  0  0  0  0  0  0
    1.3651   -1.1769   -0.4381 C   0  0  0  0  0  0  0  0  0  0  0  0
    2.3369   -0.6950   -0.3183 H   0  0  0  0  0  0  0  0  0  0  0  0
    1.3595   -2.1056    0.1353 H   0  0  0  0  0  0  0  0  0  0  0  0
    1.1651   -1.4630   -1.8097 O   0  0  0  0  0  0  0  0  0  0  0  0
    1.9545   -1.9021   -2.1443 H   0  0  0  0  0  0  0  0  0  0  0  0
    0.2084    1.0656   -0.7176 C   0  0  0  0  0  0  0  0  0  0  0  0
   -0.7343    1.2724   -1.4826 O   0  0  0  0  0  0  0  0  0  0  0  0
    1.1965    1.9502   -0.5451 N   0  0  0  0  0  0  0  0  0  0  0  0
    1.9729    1.6539    0.0312 H   0  0  0  0  0  0  0  0  0  0  0  0
    1.2800    3.2455   -1.2171 C   0  0  0  0  0  0  0  0  0  0  0  0
    0.3092    3.7443   -1.1806 H   0  0  0  0  0  0  0  0  0  0  0  0
    2.0254    3.8747   -0.7298 H   0  0  0  0  0  0  0  0  0  0  0  0
    1.5581    3.0984   -2.2628 H   0  0  0  0  0  0  0  0  0  0  0  0
  5  6  2  0  0  0  0
  5  7  1  0  0  0  0
  2  3  1  0  0  0  0
  2  4  1  0  0  0  0
  2  5  1  0  0  0  0
  1  2  1  0  0  0  0
 16 17  2  0  0  0  0
 16 18  1  0  0  0  0
 14 15  1  0  0  0  0
 11 12  1  0  0  0  0
 11 13  1  0  0  0  0
 11 14  1  0  0  0  0
  9 10  1  0  0  0  0
  9 11  1  0  0  0  0
  9 16  1  0  0  0  0
  7  8  1  0  0  0  0
  7  9  1  0  0  0  0
 20 21  1  0  0  0  0
 20 22  1  0  0  0  0
 20 23  1  0  0  0  0
 18 19  1  0  0  0  0
 18 20  1  0  0  0  0
M  END
$$$$
